Geom Title=Mississippi 100-yr Geometry
Program Version=3.11
Viewing Rectangle= 2127781.28 , 2778357.13 , 14427216.59 , 13435092.01 

Junct Name=Path 2          
Junct Desc=, 0 , 0 ,-1 
Junct X Y & Text X Y=2720596.25,13485505,2723398,13487363
Up River,Reach=Mississippi     ,Len Small       
Up River,Reach=Mississippi     ,Reach 2         
Dn River,Reach=Mississippi     ,Reach 3         
Junc L&A=6000,60
Junc L&A=2900,0

Junct Name=Confluence      
Junct Desc=, 0 , 0 ,-1 
Junct X Y & Text X Y=2543436,13783118,2543436,13783118
Up River,Reach=Mississippi     ,Reach 1         
Up River,Reach=Mississippi     ,Kaskaskia Island
Dn River,Reach=Mississippi     ,Reach 2         
Junc L&A=3140,
Junc L&A=3250,

River Reach=Mississippi     ,Kaskaskia Island
Reach XY= 13 
 2508784.609876813783997.1489571 2512275.776802413778307.8398932
 2514991.128855613774816.6729677  2516672.06107913772877.1357868
 2522878.580057813768351.5490314 2528179.981685613767446.4316803
  2532188.35852613766799.9192867 2535938.130409113767575.7341591
  2538782.78494113769256.6663825 2540980.927079313770549.6911697
 2543930.008803813776540.2813443 2544579.937647713779425.9654113
 2543436.062882413783117.5612449
Rch Text X Y=2519193.4594142,13782962.7291273
Reverse River Text= 0 

Type RM Length L Ch R = 1 ,118.64  ,2100,2220,2300
XS GIS Cut Line=3
 2518498.343570513798915.1305394      2518124.77     13789510.07
      2507574.31     13782816.89
Node Last Edited Time=Aug/18/2003 16:15:07
#Sta/Elev= 89 
15178.42     39515178.43  390.1515187.88  390.1515251.97  373.57 15423.5  374.33
15901.61  371.6515989.53  374.5816158.81  373.3716304.97  376.5816677.83  375.22
16944.58  376.4117135.12  373.7317747.42  376.0718106.79  375.2318135.87  373.13
 21347.1  371.1522424.02  372.9222528.37  370.6922824.09  374.8122870.07  373.24
 23103.4  374.6923230.92  371.7323760.95  370.8323816.99  373.1724036.45  371.73
24060.62  369.3724229.29  369.9424286.59  366.6924428.44  366.3524538.48  372.72
 24590.9  386.5524620.23  385.7624759.32  373.9724817.57  371.9625180.15  374.23
25468.81  376.5725609.35   379.925974.09  374.2726177.65  374.9326309.39  377.97
26357.09  375.9126541.95   373.626686.79  376.0526870.26   374.227185.23  375.41
27361.21  371.4427653.93  374.4728451.96   369.829937.44  371.9230103.81  369.26
30504.05  367.7430712.08   369.730974.75  369.3131071.46  368.5331137.59  370.15
31410.53  369.8831616.14  372.6132253.22  370.57 32655.5  371.1332778.45  368.58
32926.59  368.9333133.46  372.8333384.47  371.76 33439.4  368.8133681.99  370.62
33926.73  371.0734223.71  370.9934442.73  371.0434529.89  369.5434815.78  372.58
 35083.6  369.5535238.36   372.435460.59  370.8735653.15  372.3835862.86  367.72
35931.18  371.08 36018.5  368.8136100.49  370.3836239.18  368.5236284.35   384.9
36293.92  384.8936348.95  367.7136447.38   366.736538.23  366.5236583.88  370.98
36716.55  369.8536878.31  380.0937051.95  399.8437085.34  411.54
#Mann= 3 , 0 , 0 
15178.42     .08       027653.93    .036       036293.92     .08       0
Bank Sta=27653.93,36293.92
XS Rating Curve= 0 
Exp/Cntr=0.3,0.1

Type RM Length L Ch R = 1 ,118.21  ,1375,1520,1365
XS GIS Cut Line=3
 2517503.3591337 13781915.770066      2517275.68     13781411.22
      2510830.14     13778167.19
Node Last Edited Time=Aug/18/2003 16:15:07
#Sta/Elev= 38 
31915.72  379.7732025.45  376.7732335.32   380.432398.69  394.6332412.39  394.63
32469.25  380.8132510.99  370.1532553.96   370.432830.68  371.6833105.73  374.15
33453.81  370.1333484.33  369.6933833.41  374.0634058.02  367.6134080.68  367.65
34183.21  370.11 34372.5  369.18 34621.2  372.7634756.62  366.4734846.38  368.24
35234.04  368.3135325.61  370.3736230.93  371.4436341.19  365.87 36447.4  365.79
36498.73  364.7537160.82  365.9137248.95  374.9837399.83  383.1837446.52  383.22
37637.46  367.4437858.77  368.2838740.39  366.6338807.52  367.0138880.36  379.93
39099.34  379.9339307.38  399.9939685.12  410.74
#Mann= 3 , 0 , 0 
31915.72     .08       032469.25    .036       037248.95     .08       0
Levee=-1,32398.69,394.63,0,,,,
Bank Sta=32469.25,37248.95
XS Rating Curve= 0 
Exp/Cntr=0.3,0.1

Type RM Length L Ch R = 1 ,117.92  ,4400,2750,2900
XS GIS Cut Line=3
 2518458.106216313779898.3214935      2517907.29     13778499.21
      2510748.72     13774206.57
Node Last Edited Time=Aug/18/2003 16:15:07
#Sta/Elev= 33 
34143.95  376.8434482.89  379.3334767.37  377.69 34810.2  380.1935177.92  378.52
35270.98  395.5935291.55  395.5835443.47  390.3635802.09  390.8935931.29  391.29
36079.61  373.6736273.24  367.52 36607.1  369.1536708.89  366.8337235.46  371.62
37866.23  368.2737939.94  365.6238002.75  368.2438168.88   366.738415.73  368.62
40422.51  365.8940729.59  370.5141033.41  367.7641099.33  366.2641286.05   369.4
41434.36   382.6 41677.8  380.1942444.38  379.9542751.01  381.3243057.64  380.01
43364.27  380.2543858.29  380.0143994.57  400.12
#Mann= 3 , 0 , 0 
34143.95     .08       035931.29    .036       041434.36     .08       0
Levee=-1,35270.98,395.59,0,,,,
Bank Sta=35931.29,41434.36
XS Rating Curve= 0 
Exp/Cntr=0.3,0.1

Type RM Length L Ch R = 1 ,117.41  ,3150,2425,1700
XS GIS Cut Line=3
 2519630.3149953 13777268.487166      2519133.98     13775915.78
      2515258.63     13773121.79
Node Last Edited Time=Aug/18/2003 16:15:07
#Sta/Elev= 37 
32037.72  374.2733097.37  377.8533265.84  383.4533326.18  395.7733346.14  395.78
33422.29  379.9233467.28  381.1233478.61  379.2133509.56  372.4833563.15  367.22
34100.95  367.3234129.35  365.7834179.12  368.48 34791.3  370.9135174.84  369.38
35237.78  367.3435276.61     36935426.03  365.87 35594.8  368.3335882.31  365.44
36581.45   367.336819.82     36436937.96  366.2937117.87   364.137464.29   367.3
37547.96  368.3937753.66  369.3737799.69  375.8337895.31  380.5237909.38   387.2
37950.55   386.9 37970.8  387.0138014.66  387.6338039.93  392.2238110.22  400.01
38207.48  400.0138256.11  410.03
#Mann= 3 , 0 , 0 
32037.72     .08       033467.28    .036       037895.31     .08       0
Levee=-1,33326.18,395.77,0,,,,
Bank Sta=33467.28,37895.31
XS Rating Curve= 0 
Exp/Cntr=0.3,0.1

Type RM Length L Ch R = 1 ,116.88  ,2940,2400,1430
XS GIS Cut Line=3
 2521932.063297613772875.3261265      2521814.68     13772292.71
      2520119.08     13769347.89
Node Last Edited Time=Aug/18/2003 16:15:07
#Sta/Elev= 25 
33055.09  373.4533565.88  378.6233623.44  396.5633636.27  396.5633649.42  392.64
33683.29  382.23 33721.6  381.3933760.66  371.4133814.71  367.7733826.05  363.57
34397.04  362.5535005.63  361.2735054.23  363.8835169.58  361.6736162.75  362.59
36199.55   366.436446.89  364.8936615.98   363.9 36707.3  368.5836744.46  384.38
36761.32  382.7136769.32  386.5636846.71  389.9836995.22  399.9437047.51  420.08
#Mann= 3 , 0 , 0 
33055.09     .08       033683.29    .036       036744.46     .08       0
Levee=-1,33623.44,396.56,0,,,,
Bank Sta=33683.29,36744.46
XS Rating Curve= 0 
Exp/Cntr=0.3,0.1

Type RM Length L Ch R = 1 ,116.41  ,3320,3125,2140
XS GIS Cut Line=3
 2523051.383894113772477.6865736      2522915.82     13771663.18
      2521085.37      13768251.5
Node Last Edited Time=Aug/18/2003 16:15:07
#Sta/Elev= 28 
30992.13   374.331260.41  376.47 31425.6  374.0531598.14  377.0431609.86  379.54
31706.48  381.4831761.63  395.7431775.74  395.7931783.62  393.6631804.73  393.84
31817.85  389.68 31841.1  381.6832074.62  368.1632896.05  368.6533570.83  367.53
33715.14  368.7533874.49  366.9934652.68   367.334992.84  369.9635046.63   369.4
35085.89  379.5135239.25  380.7835262.92  385.6835304.11  385.6335314.58  384.06
35346.09  384.9935649.06     40035689.55  410.02
#Mann= 3 , 0 , 0 
30992.13     .08       0 31841.1    .036       035239.25     .08       0
Levee=-1,31761.63,395.74,0,,,,
Bank Sta=31841.1,35239.25
XS Rating Curve= 0 
Exp/Cntr=0.3,0.1

Type RM Length L Ch R = 1 ,115.76  ,2950,2850,2035
XS GIS Cut Line=3
 2528023.483408213772158.6312714      2528013.18     13770979.86
      2527431.02     13766016.96
Node Last Edited Time=Aug/18/2003 16:15:07
#Sta/Elev= 30 
28695.55  369.3129161.12  369.0229325.87  372.5929483.38  372.8229799.29   381.8
29835.96  394.9329846.42  394.9329874.36  384.7129911.85  371.2529952.23  370.99
30049.71  368.0930336.91  371.4330378.32  368.2530723.23  367.9930884.31  365.06
31817.07  366.5532114.68  364.4133218.84  364.2133352.38  366.5833522.14  365.69
33758.82  368.6633820.71  364.6333993.91  362.25 34333.9  366.5634372.12  361.98
34404.83  363.2234578.75  362.3234695.85  364.1334863.52  379.6334871.29  406.99
#Mann= 3 , 0 , 0 
28695.55     .08       029874.36    .036       034863.52     .08       0
Levee=-1,29835.96,394.93,0,,,,
Bank Sta=29874.36,34863.52
XS Rating Curve= 0 
Exp/Cntr=0.3,0.1

Type RM Length L Ch R = 1 ,115.24  ,3590,3700,3550
XS GIS Cut Line=3
 2530592.105366313772749.1230286      2530609.75     13771628.73
      2531020.83     13764151.53
Node Last Edited Time=Aug/18/2003 16:15:07
#Sta/Elev= 46 
26927.09  367.2427536.31  366.6727621.99  369.9327860.02  371.9428047.62  378.75
28092.46  393.0128103.24     39328179.26  368.2128211.83  367.3228224.94  365.82
28854.79  366.4129730.93  367.0929807.75  365.0630045.49  367.7730436.62   363.4
30605.54  364.1730754.58  365.2730884.76  369.4731407.08  370.1931478.96  365.29
32109.32  367.7832241.55  364.4232300.46  365.47 32487.3  364.2932568.39     365
32622.88  363.9732826.25  364.9332865.56  366.9633033.54  368.8633094.74   365.8
33553.02  368.6234169.53  372.3434834.69  370.2834933.61  392.1934966.92  392.44
35021.02  373.9135081.36  371.3535287.95  371.0935304.52  368.6635324.34  374.55
35342.09  376.01 35364.4  381.7535374.32  381.2935455.03  381.6835531.04  399.95
 35536.1  414.97
#Mann= 3 , 0 , 0 
26927.09     .08       028103.24    .036       034933.61     .08       0
Levee=-1,28092.46,393.01,-1,34933.61,392.44,,
Bank Sta=28103.24,34933.61
XS Rating Curve= 0 
Exp/Cntr=0.3,0.1

Type RM Length L Ch R = 1 ,114.54  ,3150,3050,3050
XS GIS Cut Line=4
 2532705.998360213773682.3986021      2532742.45      13772310.7
        2534938.     13765657.93      2533780.11     13761118.08
Node Last Edited Time=Aug/18/2003 16:15:07
#Sta/Elev= 70 
23739.93  375.3723805.56  371.0423867.12   361.223999.36  364.2624047.22  362.59
24637.74  366.86 24876.6  371.5425062.07  379.49 25112.1  394.3625124.75  394.95
25204.33  369.2625252.22  366.1125411.23  364.2425495.78  364.3625875.04  363.55
26338.83  369.9926369.51  368.2726840.06  368.5527052.15  365.41 27135.3  367.82
27297.87   366.927436.37  362.5427517.91  365.1828240.55  365.5128348.01  362.59
29175.45  368.8529885.38  362.7730236.15  363.7530291.76   364.5 30592.5  361.23
   30750  367.2330974.22   363.831426.95  363.7431496.62  361.6631692.35  362.28
31782.59  368.8231818.68  361.13 31873.8  359.2332099.28   365.2 32117.8  369.67
32157.72  372.1932265.12  394.2832281.35   394.332407.28  371.4633698.38  368.95
33711.48  367.1334049.74  369.1134156.02  366.9634390.09  367.1534511.21  369.31
 34626.5  367.5535110.86  369.3135120.79  367.6335161.35  376.2335177.31  374.45
   35194  366.5735209.88   370.235354.91  372.3535433.04   370.535524.36  372.92
35735.67  371.4236151.85  377.8136197.23  392.8536209.57  392.8536248.09  381.83
36279.34  381.2136310.49  381.5436356.04  381.3136550.64  380.4736802.98  399.99
#Mann= 3 , 0 , 0 
23739.93     .08       025204.33    .036       032157.72     .08       0
Levee=-1,25124.75,394.95,-1,32281.35,394.3,,
Bank Sta=25204.33,32157.72
XS Rating Curve= 0 
Exp/Cntr=0.3,0.1

Type RM Length L Ch R = 1 ,113.88  ,3250,3480,3450
XS GIS Cut Line=4
 2535015.036050813774163.7096851      2535081.74     13773172.18
      2538075.23     13767896.94      2536938.09     13759520.09
Node Last Edited Time=Aug/18/2003 16:15:07
#Sta/Elev= 62 
21089.86  374.9421529.67  374.5321836.96  371.5321953.77   372.922034.79  376.51
22083.63   389.722099.28   394.422110.15   394.422183.12  370.0622257.89   367.5
23155.81  366.7323848.98   368.324287.84  364.0224416.37  364.9824522.84  368.35
25063.27  367.4725200.17  365.5825622.11  366.3525645.76   363.825749.97   367.8
25946.06  369.2126119.68  365.9726236.68   366.126330.57  363.5126640.65  365.34
26740.84   364.1 27050.2  364.5227147.35  365.1727182.97  369.6627453.13  363.92
27747.69   364.728029.33  361.3728149.03  362.2728270.09  359.5628500.82  362.71
 28515.7  367.9828570.61  369.7828675.31  393.7728691.89  393.78 28814.2   369.6
30021.05  368.7930051.14  370.1430279.55  367.3731920.12  370.3834009.59  368.65
34028.43   372.134053.82  370.6134071.59  369.4634855.38  367.5334879.72  369.87
34909.19   375.734924.69  374.75 34968.8  369.2335887.04  370.4535938.02  380.83
35988.31  393.6836007.85   393.736084.64  373.0336109.96  372.6736451.21  375.27
36513.14   379.536602.72  400.01
#Mann= 3 , 0 , 0 
21089.86     .08       022183.12    .036       028570.61     .08       0
Levee=-1,22110.15,394.4,-1,28675.31,393.78,,
Bank Sta=22183.12,28570.61
XS Rating Curve= 0 
Exp/Cntr=0.3,0.1

Type RM Length L Ch R = 1 ,113.31  ,2250,2950,3720
XS GIS Cut Line=4
 2537294.639849313776146.7072251      2537588.01     13774546.46
      2540781.84      13769536.9      2539388.32      13756923.2
Node Last Edited Time=Aug/18/2003 16:15:07
#Sta/Elev= 72 
 17073.4  363.0417170.69  366.6117562.33  366.1517663.72  363.9617801.35  366.96
17965.25  365.9418176.47     36818223.05  371.5418633.63  375.4918700.31   393.8
18708.52   393.818758.89  379.0818859.24  374.1719122.31  363.3519536.86  364.16
20034.11  364.1721047.33   363.521183.04  366.9321409.26  370.4921951.16  363.23
22412.48  368.4322639.95  363.9722970.52  363.9723069.97  365.8723594.26   364.3
23826.44  366.4823940.14  364.8524313.46  363.8424561.38   364.124607.29  366.23
24620.97  370.4724641.38  371.5524680.47   372.824798.35  393.0624818.46  393.06
24950.17     37225178.57   369.325423.83  371.2227461.13  367.3927480.14     369
27512.58  368.1629212.27  368.6229583.92  365.4829677.46  366.0629872.79  368.56
30431.98   367.530718.86  369.3130941.78  366.5231271.57  370.1732129.77  369.19
32160.96  370.9732168.83   368.832307.37  370.5733297.28  370.5234013.77  374.32
34268.57  368.2834331.88  375.4634347.68  373.5634386.92  368.3435309.56  371.54
35910.12  370.8536006.77  373.0536090.56  372.0736149.71  383.13 36195.2  394.79
36218.97  394.8136292.62  374.6636568.99   374.2 36604.3  374.5236671.83  378.68
36803.73  380.1137331.82  399.98
#Mann= 3 , 0 , 0 
 17073.4     .08       018859.24    .036       024680.47     .08       0
Levee=-1,18708.52,393.8,-1,24798.35,393.06,,
Bank Sta=18859.24,24680.47
XS Rating Curve= 0 
Exp/Cntr=0.3,0.1

Type RM Length L Ch R = 1 ,112.68  ,2940,3140,3250
XS GIS Cut Line=4
 2539591.190350813777081.1752078      2539716.57     13776366.12
      2543055.54     13772163.88      2543062.39     13755593.85
Node Last Edited Time=Oct/06/2003 11:04:10
#Sta/Elev= 78 
13122.69  362.2413242.92  368.9513503.95  369.5713621.93  367.4113649.23  370.23
13745.93  374.8513825.35   394.213837.65  394.1713848.65  391.1713916.73  369.93
14102.76  366.7614342.16  365.6215060.92  364.4915321.39   362.115433.19  363.84
15632.77  361.53 16106.8  363.9216247.22  361.4816402.67   361.716458.83  364.34
16532.77  361.7317417.04     36118311.91     36319077.25  365.4119088.19  368.89
19132.96  370.9419215.92  390.3519240.89  391.0619382.45  370.9220770.08  370.08
22001.89  366.1122024.43  365.9222370.65   368.623540.88  365.7623646.41     367
23709.32   368.623788.43  370.2726067.17  371.2526653.16  367.9826857.32  369.78
27559.87  367.3128074.63  368.0328610.74  372.3329327.01  369.3529330.23  372.92
29367.16  369.51 29819.9  371.0729904.84  369.6730018.82  370.9930436.74  368.68
30464.39  369.1830557.31  370.2130583.71  367.3130655.95  369.2530899.03  370.24
31462.73   367.831833.82  370.1832115.93  369.6832353.07  373.4132681.16   371.6
33152.77  373.6733167.49  377.0233180.79  377.0133194.59  373.1634325.68  371.27
34865.16  372.3634955.31  370.2834977.13  371.7634983.95  370.4835119.11   370.7
35206.19  390.0135228.05  390.4335295.75  372.7535505.96  374.7435574.75  374.01
35656.81  373.5435672.61  376.9235785.95  400.12
#Mann= 3 , 0 , 0 
13122.69     .08       013916.73    .036       019132.96     .08       0
Levee=-1,13848.65,394.2,-1,19215.92,391.26,,
Bank Sta=13916.73,19132.96
XS Rating Curve= 0 
Exp/Cntr=0.3,0.1

Type RM Length L Ch R = 1 ,112.08  ,1130,1520,1790
XS GIS Cut Line=4
 2541653.277797713778646.5159467      2541686.48     13777864.86
      2545155.26     13774806.33      2545703.99     13753738.91
Node Last Edited Time=Aug/18/2003 16:15:07
#Sta/Elev= 94 
 9517.13  362.54 9542.48  366.26 9819.89  370.13 9964.61  394.19 9979.68  394.17
 10105.1     36910299.49  366.8510407.28  369.3110989.08  370.31 11064.4  367.26
11385.38  363.7811708.67  363.6812191.87   367.312473.39  363.2912502.46   360.9
 14037.5  364.11 14233.7  367.0714511.15  362.9414772.49   363.5   14806   373.3
14852.88  374.62 14924.1  391.5114945.97  391.56 15068.6  373.0616121.99  370.12
16510.82  372.4216776.19  370.1316933.44  372.1717688.27   372.918280.58  370.59
18511.32  365.7818683.06  369.04 19408.2  367.6819498.98  370.6120441.77  371.22
20627.23  365.0620654.86   365.520703.92  365.6220713.96  367.9421279.66  369.45
 21562.2  367.2121612.67   366.521806.62  366.5521921.27   370.622141.58  369.81
   22317  366.0522342.97  365.7822507.43  368.3923876.35  367.9124715.28  371.23
24851.75  363.2424920.38     36626804.09  369.8326871.62  371.9227636.51   370.5
27740.28  372.2827767.22  370.4128200.51  369.0429252.69  371.5529404.33  368.74
29532.66  370.8229688.02  369.9330263.65  374.8930981.71  366.48 31093.9  369.65
31514.17  367.9932066.61  371.1832211.85  369.8432219.21   371.432798.78  367.53
32822.55  375.0332852.56  373.9232859.62  370.8333399.31  366.2333408.09  363.74
33774.19  366.9834821.93  367.6634846.65  367.9634897.31     36834917.01  368.58
35091.54  369.3435192.64  391.5235217.68  391.4835248.32  386.18 35306.2  371.65
35353.46     37135361.01   368.935482.77  371.2935541.07  371.7435587.16   369.4
35603.43  372.4135727.04  375.2335902.28   380.135998.66  400.11
#Mann= 3 , 0 , 0 
 9517.13     .08       010989.08    .036       0   14806     .08       0
Levee=-1,9979.68,394.19,-1,14924.1,391.56,,
Bank Sta=10989.08,14806
XS Rating Curve= 0 
Exp/Cntr=0.3,0.1

Type RM Length L Ch R = 1 ,111.78  ,1255,1260,1800
XS GIS Cut Line=5
 2542613.868834613780031.0656546      2542568.97     13779931.79
      2542747.18     13779410.13      2546246.88     13775927.09
      2546779.93     13753683.55
Node Last Edited Time=Aug/18/2003 16:15:07
#Sta/Elev= 112 
 7256.61  371.09 7365.57  393.42 7772.71  391.95 7888.78  394.39 7916.83  392.05
 8007.35  370.05 8093.67  368.03 8218.59  370.26 8851.88   370.2 9098.17  368.32
 9352.97  370.69 9521.67  370.31  9753.4  363.69 10217.9  366.38 10340.3  362.24
10579.28  360.8310622.03  362.1611544.73  364.0711891.55  368.3812105.11  367.26
 12136.4  369.0412672.93   368.512704.16  374.2412748.54  375.2912808.28   394.1
12830.51  392.5212854.38  393.6112945.06  386.6213003.26  376.9413619.74  374.11
13695.12  375.81 13950.3  373.4915022.42  371.1215166.54  372.1915391.68  369.55
15575.17  373.3715970.36   369.916310.12  373.1917197.99  368.4717559.99  363.52
17579.29  363.7719175.71   368.819546.64  369.2819757.31  371.1420322.58  366.77
20980.58  370.3821325.07  370.4521973.25  366.8122457.06  368.9122579.38  366.85
23417.89  366.8323770.05  368.5525083.62   367.725309.41  370.07 25433.7  368.16
25553.34  369.8926236.73  370.0126561.29  372.5526577.25  370.4626790.24  370.39
26812.81  369.0827869.01  369.4928058.17  367.4828558.77   374.728715.58  374.93
28867.71  371.54 29143.6  369.1429249.67  370.7729360.97  368.7829446.51  370.12
29705.81  370.0529896.73  368.5829945.59  368.6830151.22   369.830509.07  371.71
30761.69  368.94 31397.2  370.1331933.71     36631986.99  367.8732125.88  365.79
32181.21  367.0232389.59  365.08 32407.7  371.1932427.02  374.5332459.53  373.91
32464.65  372.31 32465.9  369.5232542.53  366.6232689.08   364.832709.68  364.73
33107.33  363.9933386.28  366.2733470.41  366.1133681.25  365.6233703.23  366.07
 33945.3  367.8933994.31  366.3934042.67  367.9634096.86   366.434171.99  368.76
34268.64  367.1934317.54  369.1534370.38  367.9334448.31  369.1834528.27   367.6
34586.06   369.734747.17  369.8634832.31     39234854.27  391.5434912.93  376.47
34996.98  380.33 35104.3  399.91
#Mann= 3 , 0 , 0 
 7256.61     .08       0 9521.67    .036       012704.16     .08       0
Levee=-1,7888.78,394.39,-1,12808.28,394.1,,
Bank Sta=9521.67,12704.16
XS Rating Curve= 0 
Exp/Cntr=0.3,0.1

River Reach=Mississippi     ,Reach 1         
Reach XY= 230 
      2135444.92     14397092.99      2137993.34     14394464.98
      2140147.68     14392677.93      2146925.94     14389681.99
      2151287.16     14388105.18      2152732.14     14386975.13
      2154597.47     14383926.63      2155753.46     14378749.45
      2156121.28     14375438.15      2156594.18     14373493.42
      2160482.49     14368000.86      2161086.75      14367422.7
      2162479.19     14366660.58      2165763.23     14366134.97
      2175352.64     14364663.29      2176902.71     14363270.44
      2177865.52     14361750.82      2180235.66     14356982.79
      2182684.81     14352359.64      2185752.83     14348026.26
      2186912.49     14345032.01      2187122.66     14341720.71
      2187858.29     14339565.73       2193743.3     14332470.09
       2197263.8     14329290.19      2201782.64      14326373.1
      2205276.88     14324007.89       2207352.4     14322746.44
      2209716.91     14322115.72      2211766.15     14321143.35
      2213289.95     14319724.22      2216048.54     14315256.61
      2219332.59     14311761.34      2222695.45     14311051.78
      2225059.96     14310999.22      2227424.47     14309264.73
      2232074.68     14307871.88      2232784.03     14306689.28
      2233178.12     14306005.99      2235542.63     14303430.54
      2239273.31     14301249.28      2243503.16     14298857.79
      2249046.62     14295546.49      2251936.58     14293049.88
      2255404.53     14289002.73      2257663.96     14286847.76
      2259345.39     14285875.39      2264026.46     14283826.35
      2268746.32     14281321.46      2271483.21     14278884.87
      2272984.21     14276094.15      2273151.54     14272416.63
      2273228.97      14271153.8      2276642.43     14267352.51
        2277461.     14266774.88      2278320.79     14266534.86
      2280020.37     14266154.85      2281360.03     14265534.82
      2283019.62     14263894.74      2283883.55      14262199.8
      2285678.96     14255202.33      2285578.99     14252282.19
      2286918.66     14249142.04      2287238.59     14247241.95
      2286978.66     14243281.76      2287418.55     14241361.67
      2288278.33     14237481.48      2289238.09     14235241.38
      2289717.98     14230121.13      2289857.95       14227361.
      2291217.61     14222500.77       2294896.7     14216580.49
      2297116.15      14212580.3      2298275.86     14207520.06
      2298155.89     14203559.87      2293317.09     14197539.59
      2292157.39     14193959.41      2289638.02     14191239.28
      2289658.02     14189319.19      2291878.11     14184724.98
      2294276.87     14179678.73      2296496.32     14175638.53
      2297436.09     14172658.39      2298555.81     14170918.31
       2299415.6     14169778.26      2299975.46     14168678.21
      2300935.22     14164237.99      2300875.23     14160237.81
      2300855.24     14157777.69      2303514.58     14150337.34
      2305154.17     14144257.05      2309353.12     14139496.82
      2311432.62     14137996.75       2312732.3     14136676.69
      2315051.72     14131976.47       2316731.3     14128596.31
      2318890.76     14125756.17       2321150.2     14124416.11
      2324834.13     14123022.68       2328908.3     14123356.06
      2334646.87     14124456.11      2336206.49     14124976.14
      2338325.96     14125936.18      2341225.24     14128696.31
      2344004.54     14132116.47      2346104.03     14134616.58
      2346124.02     14136436.66      2346164.01     14136716.68
      2346403.95     14137516.71      2348302.35     14140806.11
       2349023.3     14142316.94      2351199.83     14144583.13
      2354307.07     14149068.33      2356881.36     14151537.37
      2361927.56     14156288.24      2366798.89     14157797.67
      2372197.55     14159837.77      2376296.53     14159717.76
      2380321.52     14158793.72      2386200.06      14156333.6
      2392738.43     14153293.46      2396837.41     14150753.33
      2400776.43     14148473.23      2405555.24     14146417.13
      2409694.21     14146117.11      2413713.21     14146453.13
      2421011.39     14145493.08      2425370.31     14143312.98
      2429509.29     14141516.88      2434008.17      14137696.7
      2438247.11     14134456.55      2445405.33     14130996.39
      2452443.59     14126476.17      2457842.25     14123656.03
      2462541.08     14120975.91      2463480.84     14119735.85
      2463760.77     14117875.76      2463700.79     14116355.69
      2462521.09     14109735.36      2461701.29     14105075.14
       2460481.6       14102295.      2458162.17     14099854.89
      2453283.39      14095914.7        2450904.     14094354.61
      2448104.69     14092714.54      2446505.09     14090254.42
      2445725.29     14087854.31      2445205.42      14085594.2
      2444605.56     14083974.12      2442366.13       14081474.
      2439546.83     14079733.92      2437087.44     14077453.81
      2436227.65     14075653.73      2435607.81     14073293.61
      2435447.85     14069733.45      2437187.41     14065425.24
       2441188.9     14059946.92       2443795.3     14055568.47
       2445259.3     14050229.97      2446136.94     14044965.35
      2446025.27     14039718.71      2444886.98     14034758.72
      2442894.11     14029820.42      2440079.76     14025339.19
      2436252.08     14021759.28      2432719.62     14018891.58
       2429669.6     14014093.64      2427103.15     14008926.02
      2424696.18     14004336.23      2422837.05     13999431.78
      2421340.42     13994417.37      2420465.25     13989135.22
       2419500.2      13983868.8      2418652.66      13977946.9
      2418326.23     13973017.39      2416782.05     13968091.65
       2414418.9     13963533.24       2410371.3     13960322.39
      2406468.99     13956726.03      2403206.43     13952621.76
      2400774.81     13947942.77      2398811.33     13943005.89
      2397164.61     13937987.73      2394988.65     13933150.01
      2394142.12     13927898.91      2393985.35     13922621.54
      2393979.53     13917282.27      2394540.29     13912075.32
      2395473.72     13906917.32      2396118.77     13901559.98
      2396711.02     13896433.53      2398454.97     13891388.09
      2400669.95      13887028.6      2403546.79      13882567.1
       2407260.7      13878173.1      2411281.72      13874611.3
       2416728.6     13873933.43      2420737.08     13871117.36
      2423627.58     13866758.53      2426628.32     13862049.71
      2429225.55     13857507.43      2432572.89     13853372.89
      2435568.61     13848944.16      2439773.41     13845791.42
      2443850.42     13842245.19      2448085.91     13839198.55
      2452427.16     13836543.76      2457747.84      13835907.9
        2463082.     13835886.66      2467539.48     13833369.75
      2469942.01     13828714.98       2471751.3     13823834.47
      2474990.65     13819816.42      2479674.34     13817245.51
       2484665.7     13815491.89      2489691.43     13813830.48
      2494202.68     13811077.59      2498120.13     13807905.32
      2500913.62     13803537.76      2504935.17      13799405.6
      2510643.52      13798854.7      2516067.72      13799959.3
      2521010.21     13802264.64      2526387.57     13803442.95
      2530603.91     13799315.83      2533407.48     13794791.11
      2535898.31     13790752.42      2539009.04     13786505.57
      2543106.22     13783244.81 2543436.062882413783117.5612449
Rch Text X Y=2213978.0782206,14266029.3903112
Reverse River Text= 0 

Type RM Length L Ch R = 1 ,300.63  ,2186.68,3206,3382.99
XS GIS Cut Line=3
      2162714.61     14417489.88      2138267.57     14399076.14
      2134159.47     14395734.39
Node Last Edited Time=Apr/06/2004 16:38:22
#Sta/Elev= 162 
  472.91  512.41  515.44  501.92  550.38   496.5  793.45   490.4  821.94  490.99
 1140.56  482.53 1181.16  483.48 1538.87  476.38 2199.57  468.23 2222.66  471.89
 2935.42  468.63 3394.89  469.16  3589.7  472.87 3741.15  468.77  3927.3  471.98
 4028.08  476.12 4079.92   482.9 5016.61  482.82 5038.83  482.11 5433.92  481.75
 5483.58  469.74  5897.2  468.87 5926.49  468.68 8715.36  462.29 8739.51  460.83
 9652.89  458.77 9670.48   460.310306.16  461.3110333.42  459.4610355.79  460.69
10429.99  459.9710794.41  458.3710955.28  459.5211718.07  457.5411975.04  459.91
12025.08  459.3712074.82  460.7412092.04  457.4113292.66  457.7614240.14  461.22
14391.44   458.414481.89  460.8515231.23  457.9315272.25  456.4915294.56  457.78
15389.18  456.0215454.04   457.316620.71  455.0716711.09  456.9316927.05   454.3
17155.66  454.5217173.93  453.3117192.92   454.717418.67  454.9617493.09  454.79
17556.89  454.7617600.53   456.917625.95  453.5717633.81  455.4518604.84  455.57
18687.36  456.9718726.64   454.119517.05  452.5319542.29   449.619572.27   452.3
21249.43  456.9321325.56  461.9321391.98  463.4221526.78  461.1221705.84  456.08
21816.39  456.9421951.61  454.2622024.05  456.4522110.01  453.8722201.32  454.61
22232.12  459.2422249.67  457.9622783.19  458.4323053.24  454.2123091.34  453.78
23523.64  456.16 23560.6  453.2723878.08  453.6223944.38  455.7124877.84  453.29
24961.27  451.8225484.18  451.6825666.74   453.626285.45  450.2827590.98  454.62
27894.16   453.827932.85  453.6128271.34  453.25 28325.3   454.628374.79  453.85
28537.88  455.8928922.24  455.6928986.42   453.829025.31  455.0129101.48  453.96