Flow Title=Mississippi 100-yr Flow
Program Version=3.11
Number of Profiles= 4 
Profile Names=100-yr,MO 1-ft,IL 0.1-ft,Floodway
River Rch & RM=X-over,XOVR            ,3.69    
256021.7256021.7256021.7256021.7
River Rch & RM=Crossover,Kaskaskia Island,118.64  
130808.3130808.3130808.3130808.3
River Rch & RM=Mississippi,Reach 1         ,300.63  
  442000  442000  442000  442000
River Rch & RM=Mississippi,Reach 1         ,284.40  
  443000  443000  443000  443000
River Rch & RM=Mississippi,Reach 1         ,236.39  
  445000  445000  445000  445000
River Rch & RM=Mississippi,Reach 1         ,218.01  
  488000  488000  488000  488000
River Rch & RM=Mississippi,Reach 1         ,213.28  
  550000  550000  550000  550000
River Rch & RM=Mississippi,Reach 1         ,210.13  
  610000  610000  610000  610000
River Rch & RM=Mississippi,Reach 1         ,195.56  
  910000  910000  910000  910000
River Rch & RM=Mississippi,Reach 1         ,160.71  
  924000  924000  924000  924000
River Rch & RM=Mississippi,Reach 1         ,130.78  
  924000  924000  924000  924000
River Rch & RM=Mississippi,Reach 1         ,119.09  
923123.1923123.1923123.1923123.1
River Rch & RM=Mississippi,Reach 1         ,118.64  
910411.5910411.5910411.5910411.5
River Rch & RM=Mississippi,Reach 1         ,118.21  
891888.1891888.1891888.1891888.1
River Rch & RM=Mississippi,Reach 1         ,117.92  
870266.9870266.9870266.9870266.9
River Rch & RM=Mississippi,Reach 1         ,117.41  
853804.1853804.1853804.1853804.1
River Rch & RM=Mississippi,Reach 1         ,116.88  
828087.8828087.8828087.8828087.8
River Rch & RM=Mississippi,Reach 1         ,116.41  
818191.8818191.8818191.8818191.8
River Rch & RM=Mississippi,Reach 2         ,112.08  
  948000  948000  948000  948000
River Rch & RM=Mississippi,Reach 2         ,75.65   
  949000  949000  949000  949000
River Rch & RM=Mississippi,Reach 2         ,43.70   
  950000  950000  950000  950000
River Rch & RM=Mississippi,Reach 2         ,37.7    
819513.9819513.9819513.9819513.9
River Rch & RM=Mississippi,Reach 2         ,36.57   
694978.3694978.3694978.3694978.3
River Rch & RM=Mississippi,Reach 2         ,20.94   
614677.6614677.6614677.6614677.6
River Rch & RM=Mississippi,Reach 2         ,20.54   
602802.6602802.6602802.6602802.6
River Rch & RM=Mississippi,Reach 2         ,20.05   
591125.8591125.8591125.8591125.8
River Rch & RM=Mississippi,Reach 2         ,19.28   
579643.6579643.6579643.6579643.6
River Rch & RM=Mississippi,Reach 2         ,18.39   
  568353  568353  568353  568353
River Rch & RM=Mississippi,Reach 2         ,18.05   
557250.7557250.7557250.7557250.7
River Rch & RM=Mississippi,Reach 3         ,14.92   
812272.4812272.4812272.4812272.4
River Rch & RM=Mississippi,Reach 3         ,12.2    
823374.6823374.6823374.6823374.6
River Rch & RM=Mississippi,Reach 3         ,11.73   
834665.3834665.3834665.3834665.3
River Rch & RM=Mississippi,Reach 3         ,11.25   
834665.3834665.3834665.3834665.3
River Rch & RM=Mississippi,Reach 3         ,10.86   
846147.4846147.4846147.4846147.4
River Rch & RM=Mississippi,Reach 3         ,10.14   
857824.3857824.3857824.3857824.3
River Rch & RM=Mississippi,Reach 3         ,9.6     
869699.3869699.3869699.3869699.3
River Rch & RM=Mississippi,Reach 3         ,9.00    
  950000  950000  950000  950000
River Rch & RM=Mississippi,Kaskaskia Island,118.64  
130808.3130808.3130808.3130808.3
River Rch & RM=Mississippi,Len Small       ,3.69    
256021.7256021.7256021.7256021.7
River Rch & RM=Len Small,Crossover       ,3.69    
256021.7256021.7256021.7256021.7
River Rch & RM=Kaskaskia Island,Split Flow      ,118.64  
130808.3130808.3130808.3130808.3
Boundary for River Rch & Prof#=Mississippi,Len Small       , 1 
Up Type= 0 
Dn Type= 0 
Boundary for River Rch & Prof#=X-over,Path 1          , 1 
Up Type= 0 
Dn Type= 1 
Dn Known WS=329
Boundary for River Rch & Prof#=Mississippi,Kaskaskia Island, 1 
Up Type= 0 
Dn Type= 0 
Boundary for River Rch & Prof#=Mississippi,Reach 1         , 1 
Up Type= 0 
Dn Type= 0 
Boundary for River Rch & Prof#=Mississippi,Reach 2         , 1 
Up Type= 0 
Dn Type= 0 
Boundary for River Rch & Prof#=Mississippi,Reach 3         , 1 
Up Type= 0 
Dn Type= 3 
Dn Slope=0.0001
Observed WS=Mississippi     ,Reach 1         ,300.63  ,0,472.1,,,
Observed WS=Mississippi     ,Reach 1         ,300.04  ,0,471.8,,,
Observed WS=Mississippi     ,Reach 1         ,299.45  ,0,471.5,,,
Observed WS=Mississippi     ,Reach 1         ,298.86  ,0,471.2,,,
Observed WS=Mississippi     ,Reach 1         ,298.17  ,0,470.8,,,
Observed WS=Mississippi     ,Reach 1         ,297.81  ,0,470.6,,,
Observed WS=Mississippi     ,Reach 1         ,297.30  ,0,470.4,,,
Observed WS=Mississippi     ,Reach 1         ,296.80  ,0,470.1,,,
Observed WS=Mississippi     ,Reach 1         ,296.15  ,0,469.8,,,
Observed WS=Mississippi     ,Reach 1         ,295.60  ,0,469.5,,,
Observed WS=Mississippi     ,Reach 1         ,294.97  ,0,469.2,,,
Observed WS=Mississippi     ,Reach 1         ,294.55  ,0,469,,,
Observed WS=Mississippi     ,Reach 1         ,293.86  ,0,468.7,,,
Observed WS=Mississippi     ,Reach 1         ,293.37  ,0,468.4,,,
Observed WS=Mississippi     ,Reach 1         ,293.01  ,0,468.2,,,
Observed WS=Mississippi     ,Reach 1         ,292.57  ,0,468,,,
Observed WS=Mississippi     ,Reach 1         ,292.09  ,0,467.8,,,
Observed WS=Mississippi     ,Reach 1         ,291.56  ,0,467.5,,,
Observed WS=Mississippi     ,Reach 1         ,291     ,0,467.2,,,
Observed WS=Mississippi     ,Reach 1         ,290.60  ,0,467,,,
Observed WS=Mississippi     ,Reach 1         ,290.2   ,0,466.8,,,
Observed WS=Mississippi     ,Reach 1         ,289.49  ,0,466.5,,,
Observed WS=Mississippi     ,Reach 1         ,288.87  ,0,466.2,,,
Observed WS=Mississippi     ,Reach 1         ,288.47  ,0,466,,,
Observed WS=Mississippi     ,Reach 1         ,287.89  ,0,465.7,,,
Observed WS=Mississippi     ,Reach 1         ,287.31  ,0,465.4,,,
Observed WS=Mississippi     ,Reach 1         ,286.72  ,0,465.1,,,
Observed WS=Mississippi     ,Reach 1         ,286.17  ,0,464.8,,,
Observed WS=Mississippi     ,Reach 1         ,285.59  ,0,464.5,,,
Observed WS=Mississippi     ,Reach 1         ,285     ,0,464.2,,,
Observed WS=Mississippi     ,Reach 1         ,284.40  ,0,463.9,,,
Observed WS=Mississippi     ,Reach 1         ,283.75  ,0,463.6,,,
Observed WS=Mississippi     ,Reach 1         ,283.2   ,0,463.3,,,
Observed WS=Mississippi     ,Reach 1         ,283.16  ,0,463.3,,,
Observed WS=Mississippi     ,Reach 1         ,283.14  ,0,463.3,,,
Observed WS=Mississippi     ,Reach 1         ,282.69  ,0,463.1,,,
Observed WS=Mississippi     ,Reach 1         ,282.13  ,0,462.7,,,
Observed WS=Mississippi     ,Reach 1         ,282.09  ,0,462.7,,,
Observed WS=Mississippi     ,Reach 1         ,282.05  ,0,462.7,,,
Observed WS=Mississippi     ,Reach 1         ,282.03  ,0,462.7,,,
Observed WS=Mississippi     ,Reach 1         ,281.43  ,0,462.3,,,
Observed WS=Mississippi     ,Reach 1         ,280.78  ,0,461.9,,,
Observed WS=Mississippi     ,Reach 1         ,280.18  ,0,461.5,,,
Observed WS=Mississippi     ,Reach 1         ,279.63  ,0,461.2,,,
Observed WS=Mississippi     ,Reach 1         ,279.08  ,0,460.9,,,
Observed WS=Mississippi     ,Reach 1         ,278.67  ,0,460.6,,,
Observed WS=Mississippi     ,Reach 1         ,278.11  ,0,460.3,,,
Observed WS=Mississippi     ,Reach 1         ,277.57  ,0,459.9,,,
Observed WS=Mississippi     ,Reach 1         ,276.86  ,0,459.5,,,
Observed WS=Mississippi     ,Reach 1         ,276.27  ,0,459.1,,,
Observed WS=Mississippi     ,Reach 1         ,275.55  ,0,458.7,,,
Observed WS=Mississippi     ,Reach 1         ,275     ,0,458.3,,,
Observed WS=Mississippi     ,Reach 1         ,274.43  ,0,458,,,
Observed WS=Mississippi     ,Reach 1         ,273.84  ,0,457.6,,,
Observed WS=Mississippi     ,Reach 1         ,273.53  ,0,457.4,,,
Observed WS=Mississippi     ,Reach 1         ,273.32  ,0,456.9,,,
Observed WS=Mississippi     ,Reach 1         ,272.98  ,0,456.8,,,
Observed WS=Mississippi     ,Reach 1         ,272.59  ,0,456.6,,,
Observed WS=Mississippi     ,Reach 1         ,272.22  ,0,456.5,,,
Observed WS=Mississippi     ,Reach 1         ,271.66  ,0,456.3,,,
Observed WS=Mississippi     ,Reach 1         ,270.98  ,0,456,,,
Observed WS=Mississippi     ,Reach 1         ,270.45  ,0,455.8,,,
Observed WS=Mississippi     ,Reach 1         ,269.91  ,0,455.5,,,
Observed WS=Mississippi     ,Reach 1         ,269.31  ,0,455.3,,,
Observed WS=Mississippi     ,Reach 1         ,268.76  ,0,455,,,
Observed WS=Mississippi     ,Reach 1         ,268.23  ,0,454.7,,,
Observed WS=Mississippi     ,Reach 1         ,267.62  ,0,454.5,,,
Observed WS=Mississippi     ,Reach 1         ,267.22  ,0,454.3,,,
Observed WS=Mississippi     ,Reach 1         ,266.55  ,0,454,,,
Observed WS=Mississippi     ,Reach 1         ,265.98  ,0,453.7,,,
Observed WS=Mississippi     ,Reach 1         ,265.59  ,0,453.5,,,
Observed WS=Mississippi     ,Reach 1         ,264.96  ,0,453.2,,,
Observed WS=Mississippi     ,Reach 1         ,264.40  ,0,452.9,,,
Observed WS=Mississippi     ,Reach 1         ,263.75  ,0,452.6,,,
Observed WS=Mississippi     ,Reach 1         ,263.14  ,0,452.3,,,
Observed WS=Mississippi     ,Reach 1         ,262.47  ,0,451.9,,,
Observed WS=Mississippi     ,Reach 1         ,261.98  ,0,451.7,,,
Observed WS=Mississippi     ,Reach 1         ,261.41  ,0,451.4,,,
Observed WS=Mississippi     ,Reach 1         ,260.68  ,0,451,,,
Observed WS=Mississippi     ,Reach 1         ,260.17  ,0,450.8,,,
Observed WS=Mississippi     ,Reach 1         ,259.65  ,0,450.6,,,
Observed WS=Mississippi     ,Reach 1         ,259.18  ,0,450.4,,,
Observed WS=Mississippi     ,Reach 1         ,258.72  ,0,450.2,,,
Observed WS=Mississippi     ,Reach 1         ,258.39  ,0,450.1,,,
Observed WS=Mississippi     ,Reach 1         ,258     ,0,450,,,
Observed WS=Mississippi     ,Reach 1         ,257.57  ,0,449.8,,,
Observed WS=Mississippi     ,Reach 1         ,256.95  ,0,449.6,,,
Observed WS=Mississippi     ,Reach 1         ,256.40  ,0,449.4,,,
Observed WS=Mississippi     ,Reach 1         ,255.81  ,0,449.2,,,
Observed WS=Mississippi     ,Reach 1         ,255.26  ,0,449,,,
Observed WS=Mississippi     ,Reach 1         ,254.68  ,0,448.8,,,
Observed WS=Mississippi     ,Reach 1         ,254.18  ,0,448.7,,,
Observed WS=Mississippi     ,Reach 1         ,253.7   ,0,448.5,,,
Observed WS=Mississippi     ,Reach 1         ,253.21  ,0,448.3,,,
Observed WS=Mississippi     ,Reach 1         ,252.67  ,0,448.1,,,
Observed WS=Mississippi     ,Reach 1         ,252.19  ,0,448,,,
Observed WS=Mississippi     ,Reach 1         ,251.70  ,0,447.8,,,
Observed WS=Mississippi     ,Reach 1         ,251.22  ,0,447.6,,,
Observed WS=Mississippi     ,Reach 1         ,250.85  ,0,447.5,,,
Observed WS=Mississippi     ,Reach 1         ,250.38  ,0,447.4,,,
Observed WS=Mississippi     ,Reach 1         ,250.00  ,0,447.3,,,
Observed WS=Mississippi     ,Reach 1         ,249.50  ,0,447.2,,,
Observed WS=Mississippi     ,Reach 1         ,248.87  ,0,447,,,
Observed WS=Mississippi     ,Reach 1         ,248.22  ,0,446.8,,,
Observed WS=Mississippi     ,Reach 1         ,247.69  ,0,446.7,,,
Observed WS=Mississippi     ,Reach 1         ,247.09  ,0,446.5,,,
Observed WS=Mississippi     ,Reach 1         ,246.56  ,0,446.4,,,
Observed WS=Mississippi     ,Reach 1         ,246     ,0,446.2,,,
Observed WS=Mississippi     ,Reach 1         ,245.39  ,0,446.1,,,
Observed WS=Mississippi     ,Reach 1         ,244.67  ,0,445.9,,,
Observed WS=Mississippi     ,Reach 1         ,244.03  ,0,445.8,,,
Observed WS=Mississippi     ,Reach 1         ,243.22  ,0,445.8,,,
Observed WS=Mississippi     ,Reach 1         ,242.65  ,0,445.7,,,
Observed WS=Mississippi     ,Reach 1         ,242.02  ,0,445.7,,,
Observed WS=Mississippi     ,Reach 1         ,241.49  ,0,445.6,,,
Observed WS=Mississippi     ,Reach 1         ,241.33  ,0,445.3,,,
Observed WS=Mississippi     ,Reach 1         ,241.23  ,0,445.1,,,
Observed WS=Mississippi     ,Reach 1         ,240.64  ,0,444.9,,,
Observed WS=Mississippi     ,Reach 1         ,240.1   ,0,444.8,,,
Observed WS=Mississippi     ,Reach 1         ,239.58  ,0,444.7,,,
Observed WS=Mississippi     ,Reach 1         ,239.09  ,0,444.5,,,
Observed WS=Mississippi     ,Reach 1         ,238.59  ,0,444.4,,,
Observed WS=Mississippi     ,Reach 1         ,238.19  ,0,444.3,,,
Observed WS=Mississippi     ,Reach 1         ,237.56  ,0,444.1,,,
Observed WS=Mississippi     ,Reach 1         ,237     ,0,444,,,
Observed WS=Mississippi     ,Reach 1         ,236.39  ,0,443.8,,,
Observed WS=Mississippi     ,Reach 1         ,235.79  ,0,443.7,,,
Observed WS=Mississippi     ,Reach 1         ,235.16  ,0,443.5,,,
Observed WS=Mississippi     ,Reach 1         ,234.55  ,0,443.3,,,
Observed WS=Mississippi     ,Reach 1         ,234.05  ,0,443.2,,,
Observed WS=Mississippi     ,Reach 1         ,233.59  ,0,443.1,,,
Observed WS=Mississippi     ,Reach 1         ,233.11  ,0,443,,,
Observed WS=Mississippi     ,Reach 1         ,232.58  ,0,442.8,,,
Observed WS=Mississippi     ,Reach 1         ,232.01  ,0,442.7,,,
Observed WS=Mississippi     ,Reach 1         ,231.4   ,0,442.5,,,
Observed WS=Mississippi     ,Reach 1         ,230.79  ,0,442.3,,,
Observed WS=Mississippi     ,Reach 1         ,230.29  ,0,442.2,,,
Observed WS=Mississippi     ,Reach 1         ,230.02  ,0,442.1,,,
Observed WS=Mississippi     ,Reach 1         ,229.49  ,0,442,,,
Observed WS=Mississippi     ,Reach 1         ,229     ,0,441.9,,,
Observed WS=Mississippi     ,Reach 1         ,228.5   ,0,441.7,,,
Observed WS=Mississippi     ,Reach 1         ,228.29  ,0,441.7,,,
Observed WS=Mississippi     ,Reach 1         ,227.76  ,0,441.6,,,
Observed WS=Mississippi     ,Reach 1         ,227.23  ,0,441.4,,,
Observed WS=Mississippi     ,Reach 1         ,226.77  ,0,441.3,,,
Observed WS=Mississippi     ,Reach 1         ,226.28  ,0,441.2,,,
Observed WS=Mississippi     ,Reach 1         ,225.7   ,0,441,,,
Observed WS=Mississippi     ,Reach 1         ,225.11  ,0,440.9,,,
Observed WS=Mississippi     ,Reach 1         ,224.7   ,0,440.7,,,
Observed WS=Mississippi     ,Reach 1         ,224.25  ,0,440.6,,,
Observed WS=Mississippi     ,Reach 1         ,223.75  ,0,440.5,,,
Observed WS=Mississippi     ,Reach 1         ,223.11  ,0,440.3,,,
Observed WS=Mississippi     ,Reach 1         ,222.55  ,0,440.2,,,
Observed WS=Mississippi     ,Reach 1         ,222.1   ,0,440.1,,,
Observed WS=Mississippi     ,Reach 1         ,221.62  ,0,439.9,,,
Observed WS=Mississippi     ,Reach 1         ,221.05  ,0,439.8,,,
Observed WS=Mississippi     ,Reach 1         ,220.47  ,0,439.6,,,
Observed WS=Mississippi     ,Reach 1         ,220.02  ,0,439.5,,,
Observed WS=Mississippi     ,Reach 1         ,219.43  ,0,439.4,,,
Observed WS=Mississippi     ,Reach 1         ,218.86  ,0,439.2,,,
Observed WS=Mississippi     ,Reach 1         ,218.30  ,0,439.1,,,
Observed WS=Mississippi     ,Reach 1         ,218.01  ,0,439,,,
Observed WS=Mississippi     ,Reach 1         ,217.47  ,0,438.9,,,
Observed WS=Mississippi     ,Reach 1         ,216.92  ,0,438.8,,,
Observed WS=Mississippi     ,Reach 1         ,216.55  ,0,438.8,,,
Observed WS=Mississippi     ,Reach 1         ,215.99  ,0,438.7,,,
Observed WS=Mississippi     ,Reach 1         ,215.60  ,0,438.6,,,
Observed WS=Mississippi     ,Reach 1         ,215.09  ,0,438.5,,,
Observed WS=Mississippi     ,Reach 1         ,214.48  ,0,438.4,,,
Observed WS=Mississippi     ,Reach 1         ,213.87  ,0,438.3,,,
Observed WS=Mississippi     ,Reach 1         ,213.28  ,0,438.2,,,
Observed WS=Mississippi     ,Reach 1         ,212.86  ,0,438.2,,,
Observed WS=Mississippi     ,Reach 1         ,212.38  ,0,438.1,,,
Observed WS=Mississippi     ,Reach 1         ,211.92  ,0,438,,,
Observed WS=Mississippi     ,Reach 1         ,211.39  ,0,437.9,,,
Observed WS=Mississippi     ,Reach 1         ,210.79  ,0,437.8,,,
Observed WS=Mississippi     ,Reach 1         ,210.13  ,0,437.7,,,
Observed WS=Mississippi     ,Reach 1         ,209.46  ,0,437.6,,,
Observed WS=Mississippi     ,Reach 1         ,208.89  ,0,437.5,,,
Observed WS=Mississippi     ,Reach 1         ,208.29  ,0,437.4,,,
Observed WS=Mississippi     ,Reach 1         ,207.72  ,0,437.3,,,
Observed WS=Mississippi     ,Reach 1         ,207.12  ,0,437.2,,,
Observed WS=Mississippi     ,Reach 1         ,206.60  ,0,437.1,,,
Observed WS=Mississippi     ,Reach 1         ,206.07  ,0,437.1,,,
Observed WS=Mississippi     ,Reach 1         ,205.48  ,0,437,,,
Observed WS=Mississippi     ,Reach 1         ,204.96  ,0,436.9,,,
Observed WS=Mississippi     ,Reach 1         ,204.38  ,0,436.8,,,
Observed WS=Mississippi     ,Reach 1         ,203.86  ,0,436.7,,,
Observed WS=Mississippi     ,Reach 1         ,203.36  ,0,436.6,,,
Observed WS=Mississippi     ,Reach 1         ,203.04  ,0,436.6,,,
Observed WS=Mississippi     ,Reach 1         ,202.68  ,0,436.5,,,
Observed WS=Mississippi     ,Reach 1         ,202.66  ,0,436.5,,,
Observed WS=Mississippi     ,Reach 1         ,202.63  ,0,436.5,,,
Observed WS=Mississippi     ,Reach 1         ,202.50  ,0,436.4,,,
Observed WS=Mississippi     ,Reach 1         ,201.85  ,0,436,,,
Observed WS=Mississippi     ,Reach 1         ,201.29  ,0,435.7,,,
Observed WS=Mississippi     ,Reach 1         ,200.85  ,0,435.5,,,
Observed WS=Mississippi     ,Reach 1         ,200.70  ,0,435.4,,,
Observed WS=Mississippi     ,Reach 1         ,200.54  ,0,435.3,,,
Observed WS=Mississippi     ,Reach 1         ,200.31  ,0,435.2,,,
Observed WS=Mississippi     ,Reach 1         ,199.83  ,0,435.1,,,
Observed WS=Mississippi     ,Reach 1         ,199.34  ,0,435,,,
Observed WS=Mississippi     ,Reach 1         ,198.81  ,0,434.9,,,
Observed WS=Mississippi     ,Reach 1         ,198.28  ,0,434.8,,,
Observed WS=Mississippi     ,Reach 1         ,197.71  ,0,434.7,,,
Observed WS=Mississippi     ,Reach 1         ,197.31  ,0,434.6,,,
Observed WS=Mississippi     ,Reach 1         ,196.82  ,0,434.5,,,
Observed WS=Mississippi     ,Reach 1         ,196.48  ,0,434.4,,,
Observed WS=Mississippi     ,Reach 1         ,196.09  ,0,434.2,,,
Observed WS=Mississippi     ,Reach 1         ,195.56  ,0,434.1,,,
Observed WS=Mississippi     ,Reach 1         ,194.97  ,0,433.8,,,
Observed WS=Mississippi     ,Reach 1         ,194.63  ,0,433.7,,,
Observed WS=Mississippi     ,Reach 1         ,194.16  ,0,433.6,,,
Observed WS=Mississippi     ,Reach 1         ,193.79  ,0,433.4,,,
Observed WS=Mississippi     ,Reach 1         ,193.28  ,0,433.2,,,
Observed WS=Mississippi     ,Reach 1         ,192.91  ,0,433.1,,,
Observed WS=Mississippi     ,Reach 1         ,192.41  ,0,432.9,,,
Observed WS=Mississippi     ,Reach 1         ,191.92  ,0,432.8,,,
Observed WS=Mississippi     ,Reach 1         ,191.36  ,0,432.6,,,
Observed WS=Mississippi     ,Reach 1         ,190.85  ,0,432.4,,,
Observed WS=Mississippi     ,Reach 1         ,190.82  ,0,432.4,,,
Observed WS=Mississippi     ,Reach 1         ,190.81  ,0,432.4,,,
Observed WS=Mississippi     ,Reach 1         ,190.79  ,0,432.3,,,
Observed WS=Mississippi     ,Reach 1         ,190.64  ,0,432.3,,,
Observed WS=Mississippi     ,Reach 1         ,190.50  ,0,432.2,,,
Observed WS=Mississippi     ,Reach 1         ,190.48  ,0,432.2,,,
Observed WS=Mississippi     ,Reach 1         ,190.47  ,0,432.2,,,
Observed WS=Mississippi     ,Reach 1         ,190.46  ,0,432.2,,,
Observed WS=Mississippi     ,Reach 1         ,190.37  ,0,432.2,,,
Observed WS=Mississippi     ,Reach 1         ,190.32  ,0,432.2,,,
Observed WS=Mississippi     ,Reach 1         ,190.29  ,0,432.2,,,
Observed WS=Mississippi     ,Reach 1         ,189.47  ,0,431.7,,,
Observed WS=Mississippi     ,Reach 1         ,188.88  ,0,431.3,,,
Observed WS=Mississippi     ,Reach 1         ,188.43  ,0,431.1,,,
Observed WS=Mississippi     ,Reach 1         ,188     ,0,430.8,,,
Observed WS=Mississippi     ,Reach 1         ,187.41  ,0,430.6,,,
Observed WS=Mississippi     ,Reach 1         ,186.82  ,0,430.4,,,
Observed WS=Mississippi     ,Reach 1         ,186.36  ,0,430.3,,,
Observed WS=Mississippi     ,Reach 1         ,185.76  ,0,430.1,,,
Observed WS=Mississippi     ,Reach 1         ,185.18  ,0,429.9,,,
Observed WS=Mississippi     ,Reach 1         ,184.56  ,0,429.5,,,
Observed WS=Mississippi     ,Reach 1         ,183.98  ,0,429.1,,,
Observed WS=Mississippi     ,Reach 1         ,183.38  ,0,428.6,,,
Observed WS=Mississippi     ,Reach 1         ,183.30  ,0,428.6,,,
Observed WS=Mississippi     ,Reach 1         ,183.28  ,0,428.6,,,
Observed WS=Mississippi     ,Reach 1         ,183.27  ,0,428.6,,,
Observed WS=Mississippi     ,Reach 1         ,183.26  ,0,428.6,,,
Observed WS=Mississippi     ,Reach 1         ,182.90  ,0,428.3,,,
Observed WS=Mississippi     ,Reach 1         ,182.53  ,0,428,,,
Observed WS=Mississippi     ,Reach 1         ,182.52  ,0,428,,,
Observed WS=Mississippi     ,Reach 1         ,182.50  ,0,428,,,
Observed WS=Mississippi     ,Reach 1         ,182.44  ,0,428,,,
Observed WS=Mississippi     ,Reach 1         ,181.90  ,0,427.6,,,
Observed WS=Mississippi     ,Reach 1         ,181.33  ,0,427.2,,,
Observed WS=Mississippi     ,Reach 1         ,180.77  ,0,426.8,,,
Observed WS=Mississippi     ,Reach 1         ,180.22  ,0,426.4,,,
Observed WS=Mississippi     ,Reach 1         ,180.21  ,0,426.4,,,
Observed WS=Mississippi     ,Reach 1         ,180.20  ,0,426.4,,,
Observed WS=Mississippi     ,Reach 1         ,180.11  ,0,426.4,,,
Observed WS=Mississippi     ,Reach 1         ,180.03  ,0,426.3,,,
Observed WS=Mississippi     ,Reach 1         ,180.02  ,0,426.3,,,
Observed WS=Mississippi     ,Reach 1         ,180.01  ,0,426.3,,,
Observed WS=Mississippi     ,Reach 1         ,179.53  ,0,425.9,,,
Observed WS=Mississippi     ,Reach 1         ,179.17  ,0,425.7,,,
Observed WS=Mississippi     ,Reach 1         ,179.15  ,0,425.7,,,
Observed WS=Mississippi     ,Reach 1         ,179.12  ,0,425.7,,,
Observed WS=Mississippi     ,Reach 1         ,179.00  ,0,425.6,,,
Observed WS=Mississippi     ,Reach 1         ,178.89  ,0,425.5,,,
Observed WS=Mississippi     ,Reach 1         ,178.88  ,0,425.5,,,
Observed WS=Mississippi     ,Reach 1         ,178.86  ,0,425.5,,,
Observed WS=Mississippi     ,Reach 1         ,178.31  ,0,425.1,,,
Observed WS=Mississippi     ,Reach 1         ,177.91  ,0,424.8,,,
Observed WS=Mississippi     ,Reach 1         ,177.44  ,0,424.4,,,
Observed WS=Mississippi     ,Reach 1         ,176.96  ,0,424.1,,,
Observed WS=Mississippi     ,Reach 1         ,176.56  ,0,423.9,,,
Observed WS=Mississippi     ,Reach 1         ,176.19  ,0,423.6,,,
Observed WS=Mississippi     ,Reach 1         ,175.80  ,0,423.4,,,
Observed WS=Mississippi     ,Reach 1         ,175.33  ,0,423.1,,,
Observed WS=Mississippi     ,Reach 1         ,174.38  ,0,422.6,,,
Observed WS=Mississippi     ,Reach 1         ,174.00  ,0,422.4,,,
Observed WS=Mississippi     ,Reach 1         ,173.46  ,0,422.1,,,
Observed WS=Mississippi     ,Reach 1         ,172.97  ,0,421.8,,,
Observed WS=Mississippi     ,Reach 1         ,172.41  ,0,421.4,,,
Observed WS=Mississippi     ,Reach 1         ,171.88  ,0,421.1,,,
Observed WS=Mississippi     ,Reach 1         ,171.46  ,0,420.9,,,
Observed WS=Mississippi     ,Reach 1         ,171.01  ,0,420.6,,,
Observed WS=Mississippi     ,Reach 1         ,170.60  ,0,420.4,,,
Observed WS=Mississippi     ,Reach 1         ,170.15  ,0,420.1,,,
Observed WS=Mississippi     ,Reach 1         ,169.79  ,0,419.9,,,
Observed WS=Mississippi     ,Reach 1         ,169.46  ,0,419.7,,,
Observed WS=Mississippi     ,Reach 1         ,169.10  ,0,419.5,,,
Observed WS=Mississippi     ,Reach 1         ,168.92  ,0,419.4,,,
Observed WS=Mississippi     ,Reach 1         ,168.81  ,0,419.3,,,
Observed WS=Mississippi     ,Reach 1         ,168.80  ,0,419.3,,,
Observed WS=Mississippi     ,Reach 1         ,168.75  ,0,419.3,,,
Observed WS=Mississippi     ,Reach 1         ,168.13  ,0,419,,,
Observed WS=Mississippi     ,Reach 1         ,167.52  ,0,418.7,,,
Observed WS=Mississippi     ,Reach 1         ,167.03  ,0,418.4,,,
Observed WS=Mississippi     ,Reach 1         ,166.40  ,0,418.1,,,
Observed WS=Mississippi     ,Reach 1         ,165.81  ,0,417.8,,,
Observed WS=Mississippi     ,Reach 1         ,165.25  ,0,417.5,,,
Observed WS=Mississippi     ,Reach 1         ,164.67  ,0,417.2,,,
Observed WS=Mississippi     ,Reach 1         ,164.20  ,0,416.9,,,
Observed WS=Mississippi     ,Reach 1         ,163.80  ,0,416.7,,,
Observed WS=Mississippi     ,Reach 1         ,163.30  ,0,416.5,,,
Observed WS=Mississippi     ,Reach 1         ,162.99  ,0,416.3,,,
Observed WS=Mississippi     ,Reach 1         ,162.38  ,0,416,,,
Observed WS=Mississippi     ,Reach 1         ,161.86  ,0,415.7,,,
Observed WS=Mississippi     ,Reach 1         ,161.24  ,0,415.4,,,
Observed WS=Mississippi     ,Reach 1         ,160.71  ,0,415.1,,,
Observed WS=Mississippi     ,Reach 1         ,160.18  ,0,414.9,,,
Observed WS=Mississippi     ,Reach 1         ,159.73  ,0,414.6,,,
Observed WS=Mississippi     ,Reach 1         ,159.23  ,0,414.4,,,
Observed WS=Mississippi     ,Reach 1         ,158.67  ,0,414.1,,,
Observed WS=Mississippi     ,Reach 1         ,158.21  ,0,413.9,,,
Observed WS=Mississippi     ,Reach 1         ,157.79  ,0,413.6,,,
Observed WS=Mississippi     ,Reach 1         ,157.43  ,0,413.4,,,
Observed WS=Mississippi     ,Reach 1         ,157.00  ,0,413.2,,,
Observed WS=Mississippi     ,Reach 1         ,156.52  ,0,413,,,
Observed WS=Mississippi     ,Reach 1         ,156.02  ,0,412.7,,,
Observed WS=Mississippi     ,Reach 1         ,155.54  ,0,412.5,,,
Observed WS=Mississippi     ,Reach 1         ,154.60  ,0,412,,,
Observed WS=Mississippi     ,Reach 1         ,154.01  ,0,411.7,,,
Observed WS=Mississippi     ,Reach 1         ,153.50  ,0,411.4,,,
Observed WS=Mississippi     ,Reach 1         ,152.94  ,0,411.1,,,
Observed WS=Mississippi     ,Reach 1         ,152.47  ,0,410.9,,,
Observed WS=Mississippi     ,Reach 1         ,151.98  ,0,410.6,,,
Observed WS=Mississippi     ,Reach 1         ,151.51  ,0,410.4,,,
Observed WS=Mississippi     ,Reach 1         ,151.14  ,0,410.2,,,
Observed WS=Mississippi     ,Reach 1         ,150.72  ,0,410,,,
Observed WS=Mississippi     ,Reach 1         ,150.19  ,0,409.7,,,
Observed WS=Mississippi     ,Reach 1         ,149.69  ,0,409.4,,,
Observed WS=Mississippi     ,Reach 1         ,149.24  ,0,409.2,,,
Observed WS=Mississippi     ,Reach 1         ,148.72  ,0,408.9,,,
Observed WS=Mississippi     ,Reach 1         ,148.25  ,0,408.7,,,
Observed WS=Mississippi     ,Reach 1         ,147.77  ,0,408.5,,,
Observed WS=Mississippi     ,Reach 1         ,147.26  ,0,408.2,,,
Observed WS=Mississippi     ,Reach 1         ,146.78  ,0,407.9,,,
Observed WS=Mississippi     ,Reach 1         ,146.27  ,0,407.7,,,
Observed WS=Mississippi     ,Reach 1         ,145.82  ,0,407.4,,,
Observed WS=Mississippi     ,Reach 1         ,145.35  ,0,407.2,,,
Observed WS=Mississippi     ,Reach 1         ,144.85  ,0,406.9,,,
Observed WS=Mississippi     ,Reach 1         ,144.35  ,0,406.6,,,
Observed WS=Mississippi     ,Reach 1         ,143.80  ,0,406.3,,,
Observed WS=Mississippi     ,Reach 1         ,143.42  ,0,406.1,,,
Observed WS=Mississippi     ,Reach 1         ,142.89  ,0,405.8,,,
Observed WS=Mississippi     ,Reach 1         ,142.50  ,0,405.6,,,
Observed WS=Mississippi     ,Reach 1         ,142.00  ,0,405.4,,,
Observed WS=Mississippi     ,Reach 1         ,141.53  ,0,405.1,,,
Observed WS=Mississippi     ,Reach 1         ,140.96  ,0,404.8,,,
Observed WS=Mississippi     ,Reach 1         ,140.47  ,0,404.5,,,
Observed WS=Mississippi     ,Reach 1         ,139.96  ,0,404.3,,,
Observed WS=Mississippi     ,Reach 1         ,139.48  ,0,404,,,
Observed WS=Mississippi     ,Reach 1         ,139.01  ,0,403.7,,,
Observed WS=Mississippi     ,Reach 1         ,138.58  ,0,403.5,,,
Observed WS=Mississippi     ,Reach 1         ,137.97  ,0,403.2,,,
Observed WS=Mississippi     ,Reach 1         ,137.47  ,0,402.9,,,
Observed WS=Mississippi     ,Reach 1         ,137.03  ,0,402.7,,,
Observed WS=Mississippi     ,Reach 1         ,136.48  ,0,402.4,,,
Observed WS=Mississippi     ,Reach 1         ,136.00  ,0,402.1,,,
Observed WS=Mississippi     ,Reach 1         ,135.50  ,0,401.8,,,
Observed WS=Mississippi     ,Reach 1         ,134.88  ,0,401.4,,,
Observed WS=Mississippi     ,Reach 1         ,134.37  ,0,401.1,,,
Observed WS=Mississippi     ,Reach 1         ,133.80  ,0,400.8,,,
Observed WS=Mississippi     ,Reach 1         ,133.31  ,0,400.5,,,
Observed WS=Mississippi     ,Reach 1         ,132.77  ,0,400.2,,,
Observed WS=Mississippi     ,Reach 1         ,132.24  ,0,399.8,,,
Observed WS=Mississippi     ,Reach 1         ,131.76  ,0,399.6,,,
Observed WS=Mississippi     ,Reach 1         ,131.29  ,0,399.3,,,
Observed WS=Mississippi     ,Reach 1         ,130.78  ,0,399,,,
Observed WS=Mississippi     ,Reach 1         ,130.24  ,0,398.6,,,
Observed WS=Mississippi     ,Reach 1         ,129.81  ,0,398.4,,,
Observed WS=Mississippi     ,Reach 1         ,129.39  ,0,398.1,,,
Observed WS=Mississippi     ,Reach 1         ,129.00  ,0,397.9,,,
Observed WS=Mississippi     ,Reach 1         ,128.50  ,0,397.6,,,
Observed WS=Mississippi     ,Reach 1         ,128.00  ,0,397.3,,,
Observed WS=Mississippi     ,Reach 1         ,127.48  ,0,397,,,
Observed WS=Mississippi     ,Reach 1         ,127.00  ,0,396.7,,,
Observed WS=Mississippi     ,Reach 1         ,126.48  ,0,396.4,,,
Observed WS=Mississippi     ,Reach 1         ,126.00  ,0,396.1,,,
Observed WS=Mississippi     ,Reach 1         ,125.60  ,0,395.9,,,
Observed WS=Mississippi     ,Reach 1         ,125.24  ,0,395.7,,,
Observed WS=Mississippi     ,Reach 1         ,124.78  ,0,395.5,,,
Observed WS=Mississippi     ,Reach 1         ,124.35  ,0,395.3,,,
Observed WS=Mississippi     ,Reach 1         ,123.93  ,0,395.1,,,
Observed WS=Mississippi     ,Reach 1         ,123.27  ,0,394.8,,,
Observed WS=Mississippi     ,Reach 1         ,122.72  ,0,394.6,,,
Observed WS=Mississippi     ,Reach 1         ,122.13  ,0,394.3,,,
Observed WS=Mississippi     ,Reach 1         ,121.68  ,0,394.1,,,
Observed WS=Mississippi     ,Reach 1         ,121.14  ,0,393.9,,,
Observed WS=Mississippi     ,Reach 1         ,120.65  ,0,393.7,,,