Plan Title=Mississippi Floodway
Program Version=3.11
Short Identifier=Floodway    
Simulation Date=,,,
Geom File=g01
Flow File=f01
Subcritical Flow
K Sum by GR= 0 
Std Step Tol= 0.01 
Critical Tol= 0.01 
Num of Std Step Trials= 20 
Max Error Tol= 0.3 
Flow Tol Ratio= 0.001 
Split Flow NTrial= 40 
Split Flow Tol= 0.02 
Split Flow Ratio= 0.02 
Log Output Level= 0 
Friction Slope Method= 1 
Unsteady Friction Slope Method= 2 
Unsteady Bridges Friction Slope Method= 1 
Parabolic Critical Depth
Global Vel Dist= 0 , 0 , 0 
Global Log Level= 0 
CheckData=True
Encroach Param=-1 ,0,0, 4 
Encroach River=Mississippi     
Encroach Reach=Reach 1         
Encroach Node=300.63  
       1   3103035435.05       131199.1735489.39       131199.1735435.05
Encroach Node=300.04  
       1   3081234868.21       131012.1435450.44       131012.1434868.21
Encroach Node=299.45  
       1   2969234041.62       129871.0734041.62       129871.0734041.62
Encroach Node=298.86  
       1   2908332389.46       129273.7832389.46       129273.7832389.46
Encroach Node=298.17  
       1   2751831753.87       127629.3731736.04       127629.3731753.87
Encroach Node=297.81  
       1   2634831369.63       126519.9431534.49       126519.9431369.63
Encroach Node=297.30  
       1   2587032262.71       125941.0332262.71       125941.0332262.71
Encroach Node=296.80  
       1 24838.831927.09       1 24838.831927.09       1 24838.831927.09
Encroach Node=296.15  
       1   2644334140.68       126538.5234140.68       126538.5234140.68
Encroach Node=295.60  
       1   2829034697.23       128490.8135307.13       128490.8134697.23
Encroach Node=294.97  
       1   3015035917.05       130265.9636703.19       130265.9635917.05
Encroach Node=294.55  
       1   30363 35730.4       130457.5936781.17       130457.59 35730.4
Encroach Node=293.86  
       1   2911334840.87       129223.4936531.08       129223.4934840.87
Encroach Node=293.37  
       1   2785833992.82       127960.6635717.89       127960.6633992.82
Encroach Node=293.01  
       1   27605   34655       127734.79   36637       127734.79   34655
Encroach Node=292.57  
       1   27344   35349       127479.7137626.29       127479.71   35349
Encroach Node=292.09  
       1   26149   35119       126249.5537809.41       126249.55   35119
Encroach Node=291.56  
       1   25099   34728       125262.6137239.75       125262.61   34728
Encroach Node=291     
       1   24308   33211       124474.99 37438.3       124474.99   33211
Encroach Node=290.60  
       1   22492   30776       122637.91 36834.2       122637.91   30776
Encroach Node=290.2   
       1   20614   29781       120775.37 36676.5       120775.37   29781
Encroach Node=289.49  
       1   18102   28379       118230.3736467.86       118230.37   28379
Encroach Node=288.87  
       1   15781   27877       115859.0936967.61       115859.09   27877
Encroach Node=288.47  
       1   16685   27246       116779.5437303.84       116779.54   27246
Encroach Node=287.89  
       1   16297   26135       116930.7938491.18       116930.79   26135
Encroach Node=287.31  
       1   19048   26909       119189.97 37752.6       119189.97   26909
Encroach Node=286.72  
       1   20373   26772       120532.3836027.02       120532.38   26772
Encroach Node=286.17  
       1   21897   27487       122009.82 34477.1       122009.82   27487
Encroach Node=285.59  
       1   24008   28459       124148.4232538.97       124148.42   28459
Encroach Node=285     
       1   26038   29817       126228.2431663.04       126228.24   29817
Encroach Node=284.40  
       1   2748430789.23       127684.6731356.12       127684.6730789.23
Encroach Node=283.75  
       1   2746131665.05       127587.9131665.05       127587.9131665.05
Encroach Node=283.2   
       1   2841632467.78       128528.9632449.55       128528.9632467.78
Encroach Node=283.19  
       1   2841632467.78       128528.9632449.55       128528.9632467.78
Encroach Node=283.16  
       1   2856932551.44       128770.8432551.44       128770.8432551.44
Encroach Node=283.14  
       1   2878732651.72       128923.7432651.72       128923.7432651.72
Encroach Node=282.69  
       1   2925032609.29       129406.1232609.29       129406.1232609.29
Encroach Node=282.13  
       1   28817   32375       128925.5432507.66       128925.54   32375
Encroach Node=282.09  
       1   2882332342.71       1 28921.432342.71       1 28921.432342.71
Encroach Node=282.08  
       1   2882332342.71       1 28921.432342.71       1 28921.432342.71
Encroach Node=282.05  
       1   2762232074.52       128764.5532074.52       128764.5532074.52
Encroach Node=282.03  
       1   28094 32144.4       1 28270.6 32144.4       1 28270.6 32144.4
Encroach Node=281.43  
       1   2569732743.85       125842.9432743.85       125842.9432743.85
Encroach Node=280.78  
       1   2681532198.51       126978.9532198.51       126978.9532198.51
Encroach Node=280.18  
       1   2680431225.84       126969.2731225.84       126969.2731225.84
Encroach Node=279.63  
       1   2596030609.62       126119.5830930.76       126119.5830609.62
Encroach Node=279.08  
       1   25644 29433.6       125706.71 29433.6       125706.71 29433.6
Encroach Node=278.67  
       1   2510628637.86       125217.3428637.86       125217.3428637.86
Encroach Node=278.11  
       1   2435628308.07       124426.7328308.07       124426.7328308.07
Encroach Node=277.57  
       1   2418328460.39       124287.6428460.39       124287.6428460.39
Encroach Node=276.86  
       1   2399829952.23       124103.6529952.23       124103.6529952.23
Encroach Node=276.27  
       1   23330 30681.1       123477.98 30681.1       123477.98 30681.1
Encroach Node=275.55  
       1   2308330766.14       123135.9330766.14       123135.9330766.14
Encroach Node=275     
       1   2401731540.71       124133.7531540.71       124133.7531540.71
Encroach Node=274.43  
       1   24542   30393       124693.3830699.96       124693.38   30393
Encroach Node=273.84  
       1   2327027263.92       123418.2927263.92       123418.2927263.92
Encroach Node=273.53  
       1   21277   25841       121362.85 3.1E+38       121362.85   25841
Encroach Node=273.43  
       4       1               4       1               4       1        
Encroach Node=273.32  
       1   20735   25625       120810.5225905.08       120810.52   25625
Encroach Node=272.98  
       1   18838 25396.3       119067.59 25396.3       119067.59 25396.3
Encroach Node=272.59  
       1   18935 25170.6       119060.3125720.26       119060.31 25170.6
Encroach Node=272.22  
       1   1794424339.97       118111.3126119.16       118111.3124339.97
Encroach Node=271.66  
       1   1680923221.75       1 16886.326359.07       1 16886.323221.75
Encroach Node=270.98  
       1   1612322689.93       116196.64 27816.2       116196.6422689.93
Encroach Node=270.45  
       1   15528 22067.6       115604.72   27855       115604.72 22067.6
Encroach Node=269.91  
       1   14632 21444.6       1 14765.828211.02       1 14765.8 21444.6
Encroach Node=269.31  
       1   12522 20682.2       112659.3927022.72       112659.39 20682.2
Encroach Node=268.76  
       1   10987 20157.6       111043.0425380.84       111043.04 20157.6
Encroach Node=268.23  
       1   10548 20427.8       1 10690.624873.99       1 10690.6 20427.8
Encroach Node=267.62  
       1    9500   20355       1  9636.425276.56       1  9636.4   20355
Encroach Node=267.22  
       1    8312   20316       1 8434.77   26968       1 8434.77   20316
Encroach Node=266.55  
       1    6609   20747       1 6706.1528008.07       1 6706.15   20747
Encroach Node=265.98  
       1 5508.46   20177       1 5508.46   27336       1 5508.46   20177
Encroach Node=265.59  
       1  5176.2   19390       1  5176.2   26574       1  5176.2   19390
Encroach Node=264.96  
       1 2930.93   19493       1 2930.9325374.04       1 2930.93   19493
Encroach Node=264.40  
       1  997.28   18687       1  997.28   24347       1  997.28   18687
Encroach Node=263.75  
       1 1145.06   17989       1 1145.0623505.15       1 1145.06   17989
Encroach Node=263.14  
       1 3107.28   18624       1 1214.5224073.03       1 1214.52   18624
Encroach Node=262.47  
       1 4515.67 19319.5       1    182624641.59       1    1826 19319.5
Encroach Node=261.98  
       1 2541.9818490.43       1  980.06   23930       1  980.0618490.43
Encroach Node=261.41  
       1 2419.9319110.46       1    1185   24955       1    118519110.46
Encroach Node=260.68  
       1 2344.2819513.47       1    162725542.69       1    162719513.47
Encroach Node=260.17  
       1  511.98 17754.7       1  511.98   24518       1  511.98 17754.7
Encroach Node=259.65  
       1  805.93   17804       1  805.93   24608       1  805.93   17804
Encroach Node=259.18  
       1  455.61   17340       1  455.61   24252       1  455.61   17340
Encroach Node=258.72  
       1  781.97   17250       1  781.97   24273       1  781.97   17250
Encroach Node=258.39  
       1 1467.71   17525       1    1084   24357       1    1084   17525
Encroach Node=258     
       1 1814.56   17303       1     871 24192.2       1     871   17303
Encroach Node=257.57  
       1 1069.7416565.78       1  672.03 23030.7       1  672.0316565.78
Encroach Node=256.95  
       1  505.47   17539       1  505.47 23068.6       1  505.47   17539
Encroach Node=256.40  
       1  555.73   18144       1  555.7322953.48       1  555.73   18144
Encroach Node=255.81  
       1 3252.54   19026       1     717   23167       1     717   19026
Encroach Node=255.26  
       1 3694.7219991.57       1     35123018.33       1     35119991.57
Encroach Node=254.68  
       1 3905.01   20924       1     82623066.51       1     826   20924
Encroach Node=254.18  
       1    3345   21416       1     63923643.07       1     639   21416
Encroach Node=253.7   
       1    334322386.42       1    108425047.98       1    108422386.42
Encroach Node=253.21  
       1    319422881.78       1    210725681.51       1    210722881.78
Encroach Node=252.67  
       1 2825.2122688.72       1    276125160.69       1    276122688.72
Encroach Node=252.19  
       1 2201.7921250.11       1 2201.7924086.19       1 2201.7921250.11
Encroach Node=251.70  
       1 2170.08   19714       1 2170.0824828.19       1 2170.08   19714
Encroach Node=251.22  
       1    2284   18990       1    2335   24456       1    2335   18990
Encroach Node=250.85  
       1 3059.29   19132       1 3059.29   24878       1 3059.29   19132
Encroach Node=250.38  
       1 2588.95   19443       1 2588.95   25522       1 2588.95   19443
Encroach Node=250.00  
       1  2399.619426.51       1  2399.6   25686       1  2399.619426.51
Encroach Node=249.50  
       1 1199.8218394.17       1 1199.82   24849       1 1199.8218394.17
Encroach Node=248.87  
       1 1246.36   18230       1 1246.3624455.61       1 1246.36   18230
Encroach Node=248.22  
       1 1150.3718008.63       1 1150.3724177.94       1 1150.3718008.63
Encroach Node=247.69  
       1 2106.02 18695.8       1 2106.0224499.98       1 2106.02 18695.8
Encroach Node=247.09  
       1  810.7917766.22       1  810.79   23751       1  810.7917766.22
Encroach Node=246.56  
       1  469.72   16811       1  469.72   21962       1  469.72   16811
Encroach Node=246     
       1    2180   15424       1  967.3220682.62       1  967.32   15424
Encroach Node=245.39  
       1 2722.71   14432       1  856.9318870.65       1  856.93   14432
Encroach Node=244.67  
       1 1147.48   13922       1     32617324.71       1     326   13922
Encroach Node=244.03  
       1  433.86   12415       1  433.86   17031       1  433.86   12415
Encroach Node=243.22  
       1  848.83   11937       1  848.8318980.58       1  848.83   11937
Encroach Node=242.65  
       1  453.06   11495       1  453.06   17904       1  453.06   11495
Encroach Node=242.02  
       1  180.24   11416       1  180.24 16763.7       1  180.24   11416
Encroach Node=241.49  
       1  276.39   11822       4      .1               4      .1   11822
Encroach Node=241.48  
       4       1               4      .1               4      .1        
Encroach Node=241.33  
       1  197.04   12819       1  322.09   19035       1  322.09   12819
Encroach Node=241.23  
       1  144.88   13197       1  410.13   19225       1  410.13   13197
Encroach Node=240.64  
       1  604.94   12113       1  559.39   18136       1  559.39   12113
Encroach Node=240.1   
       1  558.21   12480       1  558.21   18623       1  558.21   12480
Encroach Node=239.58  
       1  662.41   13549       1  662.41   19454       1  662.41   13549
Encroach Node=239.09  
       1  377.95   13917       1  377.95   19405       1  377.95   13917
Encroach Node=238.59  
       1  428.76   15259       1  428.76   20087       1  428.76   15259
Encroach Node=238.19  
       1  448.15   15892       1  448.15   21107       1  448.15   15892
Encroach Node=237.56  
       1   454.1   17027       1   454.122244.56       1   454.1   17027
Encroach Node=237     
       1  364.67   17739       1  364.67   23085       1  364.67   17739
Encroach Node=236.39  
       1  460.85   18454       1  460.85   24168       1  460.85   18454
Encroach Node=235.79  
       1  578.12   20059       1   573.426021.74       1   573.4   20059
Encroach Node=235.16  
       1     400   22353       1     40028298.05       1     400   22353
Encroach Node=234.55  
       1  340.64   22625       1  340.64   27400       1  340.64   22625
Encroach Node=234.05  
       1     392   22231       1  365.0926909.03       1  365.09   22231
Encroach Node=233.59  
       1  630.79   21735       1  501.58   26944       1  501.58   21735
Encroach Node=233.11  
       1  200.34   20230       1  200.34 26172.1       1  200.34   20230
Encroach Node=232.58  
       1  440.52   20160       1  440.5225637.87       1  440.52   20160
Encroach Node=232.01  
       1  334.69   19937       1  334.6925343.51       1  334.69   19937
Encroach Node=231.4   
       1  266.01   19486       1  266.01   24619       1  266.01   19486
Encroach Node=230.79  
       1  570.48   19894       1  570.4823932.49       1  570.48   19894
Encroach Node=230.29  
       1 1089.66 20163.9       1 1089.6622909.42       1 1089.66 20163.9
Encroach Node=230.02  
       1 1290.13   19863       1 1252.3519776.59       1 1252.35   19863
Encroach Node=229.49  
       1  829.39   19561       1  829.39   22292       1  829.39   19561
Encroach Node=229     
       1  648.21   19237       1  648.21   22336       1  648.21   19237
Encroach Node=228.5   
       1 1118.41   18535       1  1054.5   22570       1  1054.5   18535
Encroach Node=228.29  
       1  318.44   17081       1  318.44   21425       1  318.44   17081
Encroach Node=227.76  
       1  461.43   14520       1  461.43   20274       1  461.43   14520
Encroach Node=227.23  
       1  398.52    9060       1  398.52   16275       1  398.52    9060
Encroach Node=226.77  
       1   467.2 7705.77       1  459.55   11705       1  459.55 7705.77
Encroach Node=226.28  
       1  349.26 6126.85       1  270.88    9030       1  270.88 6126.85
Encroach Node=225.7   
       1     524 6344.09       1     524    8149       1     524 6344.09
Encroach Node=225.11  
       1  642.18  7322.8       1  642.18 7962.18       1  642.18  7322.8
Encroach Node=224.7   
       1  168.26    6983       1  168.26    8147       1  168.26    6983
Encroach Node=224.25  
       1     369    7366       1  180.27    8743       1  180.27    7366
Encroach Node=223.75  
       1  825.25 7632.13       1   85.46    9540       1   85.46 7632.13
Encroach Node=223.11  
       1     840 7952.02       1  213.34   10328       1  213.34 7952.02
Encroach Node=222.55  
       1    1147 8749.58       1  662.78   12300       1  662.78 8749.58
Encroach Node=222.1   
       1 1395.1610043.93       1  156.38   14377       1  156.3810043.93
Encroach Node=221.62  
       1 1678.07   11555       1  191.03   16693       1  191.03   11555
Encroach Node=221.05  
       1    1627   12937       1  339.73   18838       1  339.73   12937
Encroach Node=220.47  
       1     581   13162       1  257.29   20084       1  257.29   13162
Encroach Node=220.02  
       1 1557.81   13442       1 1211.68   20778       1 1211.68   13442
Encroach Node=219.43  
       1 1027.63   10678       1 1105.31   18298       1 1105.31   10678
Encroach Node=218.86  
       1 1260.58    9441       1 1208.79   17362       1 1208.79    9441
Encroach Node=218.30  
       1 1064.04    8688       1  998.25   16562       1  998.25    8688
Encroach Node=218.01  
       1    1187 8857.68       1 1071.73   16802       1 1071.73 8857.68
Encroach Node=217.47  
       1  704.75    8313       1  704.75   16174       1  704.75    8313
Encroach Node=216.92  
       1   775.3    8698       1   775.3   16865       1   775.3    8698
Encroach Node=216.55  
       1  470.36    8165       1  470.36   16451       1  470.36    8165
Encroach Node=215.99  
       1  436.52    7655       1  436.52   16550       1  436.52    7655
Encroach Node=215.60  
       1  591.13    6985       1  591.13   16385       1  591.13    6985
Encroach Node=215.09  
       1  354.68    6055       1  354.68   14986       1  354.68    6055
Encroach Node=214.48  
       1  378.33    5803       1  378.33   14062       1  378.33    5803
Encroach Node=213.87  
       1  189.16    5318       1  189.16   12360       1  189.16    5318
Encroach Node=213.28  
       1  648.28    5483       1  648.28   11425       1  648.28    5483
Encroach Node=212.86  
       1  529.38 4446.39       1  529.38   10550       1  529.38 4446.39
Encroach Node=212.38  
       1  553.84 4052.09       1  553.84    9773       1  553.84 4052.09
Encroach Node=211.92  
       1   554.3    4920       1   554.3    9365       1   554.3    4920
Encroach Node=211.39  
       1  383.38 5657.49       1  383.38    8575       1  383.38 5657.49
Encroach Node=210.79  
       1  420.84 6160.95       1  420.84    9158       1  420.84 6160.95
Encroach Node=210.13  
       1  531.53    6602       1  531.53   10446       1  531.53    6602
Encroach Node=209.46  
       1 2222.87    8090       1 2222.87   14088       1 2222.87    8090
Encroach Node=208.89  
       1  516.31    6637       1  516.31   13143       1  516.31    6637
Encroach Node=208.29  
       1  562.98    7658       1  562.98   13068       1  562.98    7658
Encroach Node=207.72  
       1  395.45    8877       1  395.45   12922       1  395.45    8877
Encroach Node=207.12  
       1  318.21    8963       1  318.21   13272       1  318.21    8963
Encroach Node=206.60  
       1  443.82    8578       1  443.82   12823       1  443.82    8578
Encroach Node=206.07  
       1   460.4    8454       1   460.4   12484       1   460.4    8454
Encroach Node=205.48  
       1  665.86    8387       1  665.86   11970       1  665.86    8387
Encroach Node=204.96  
       1  555.31    7849       1  555.31   11556       1  555.31    7849
Encroach Node=204.38  
       1  572.08    7392       1  572.08   10485       1  572.08    7392
Encroach Node=203.86  
       1  1166.5    6582       1  1166.5   10215       1  1166.5    6582
Encroach Node=203.36  
       1  368.73    4131       1  368.73    7290       1  368.73    4131
Encroach Node=203.04  
       1  652.24    3784       1  652.24    5838       1  652.24    3784
Encroach Node=202.68  
       1    2025    4425       1 1204.42    4871       1    2025    4425
Encroach Node=202.67  
       1    2025    4425       1 1204.42 3.1E+38       1    2025    4425
Encroach Node=202.66  
       1    1085    4560       1  1329.7 3.1E+38       1  1329.7    4560
Encroach Node=202.63  
       1    1533    4360       1 1388.66 3.1E+38       1 1388.66    4360
Encroach Node=202.50  
       1    1585    5074       1 1643.83    5400       1 1643.83    5074
Encroach Node=201.85  
       1 2696.45    6950       1 2696.45    7250       1 2696.45    6950
Encroach Node=201.29  
       1 4457.69    9283       1 4457.69    9020       1 4457.69    9283
Encroach Node=200.85  
       1 5943.27   10200       1 5943.27   10200       1 5943.27   10200
Encroach Node=200.70  
       1    6756   10700       1 6300.72   10700       1 6300.72   10700
Encroach Node=200.69  
       1         3.1E+38       4      .1               4      .1 3.1E+38
Encroach Node=200.54  
       1    6290   10978       1 6317.22   11425       1 6317.22   10978
Encroach Node=200.31  
       1  6900.8   12334       1  6900.8   13073       1  6900.8   12334
Encroach Node=199.83  
       1 8166.8615287.38       1 8166.86 3.1E+38       1 8166.8615287.38
Encroach Node=199.34  
       1    9036 3.1E+38       1    9036 3.1E+38       1    9036 3.1E+38
Encroach Node=198.81  
       1-3.1E+38 3.1E+38       1 6766.21 3.1E+38       1 6766.21 3.1E+38
Encroach Node=198.28  
       1-3.1E+38 3.1E+38       1 3562.15 3.1E+38       1 3562.15 3.1E+38
Encroach Node=197.71  
       1-3.1E+38 3.1E+38       1 1006.42 3.1E+38       1 1006.42 3.1E+38
Encroach Node=197.31  
       1-3.1E+38 3.1E+38       1  104.85 3.1E+38       1  104.85 3.1E+38
Encroach Node=196.82  
       1-3.1E+38 3.1E+38       1  284.64 3.1E+38       1  284.64 3.1E+38
Encroach Node=196.48  
       1-3.1E+38 3.1E+38       1  305.75 3.1E+38       1  305.75 3.1E+38
Encroach Node=196.09  
       1-3.1E+38 3.1E+38       1  340.23 3.1E+38       1  340.23 3.1E+38
Encroach Node=195.56  
       1-3.1E+38 3.1E+38       1  947.69 3.1E+38       1  947.69 3.1E+38
Encroach Node=194.97  
       1 1435.48   16587       1 1435.4823840.61       1 1435.48   16587
Encroach Node=194.63  
       1 2685.06   16892       1 2685.0624160.69       1 2685.06   16892
Encroach Node=194.16  
       1  3735.917094.82       1  3735.924302.89       1  3735.917094.82
Encroach Node=193.79  
       1  5384.417182.05       1  5384.4 24039.4       1  5384.417182.05
Encroach Node=193.28  
       1    575717053.45       1    575723395.03       1    575717053.45
Encroach Node=192.91  
       1    702816812.54       1    702821024.21       1    702816812.54
Encroach Node=192.41  
       1    813817286.03       1    813820081.39       1    813817286.03
Encroach Node=191.92  
       1    943618274.42       1    9436 19974.4       1    943618274.42
Encroach Node=191.36  
       1   10560   17343       1   1056018561.67       1   10560   17343
Encroach Node=190.85  
       111620.1816985.79       111620.1816985.79       111620.1816985.79
Encroach Node=190.82  
       111701.8916964.35       111701.8916964.35       111701.8916964.35
Encroach Node=190.815 
       111701.89   17000       111701.89   17000       111701.89   17000
Encroach Node=190.81  
       111706.1816949.12       111706.1816949.12       111706.1816949.12
Encroach Node=190.79  
       1 11732.816944.66       1 11732.816944.66       1 11732.816944.66
Encroach Node=190.64  
       111409.9516614.27       111409.9516614.27       111409.9516614.27
Encroach Node=190.50  
       1 11607.616777.88       1 11607.616777.88       1 11607.616777.88
Encroach Node=190.48  
       111540.3816771.25       111540.3816771.25       111540.3816771.25
Encroach Node=190.475 
       111540.38   16900       111540.38   16900       111540.38   16900
Encroach Node=190.47  
       111553.0916778.96       111553.0916778.96       111553.0916778.96
Encroach Node=190.46  
       111460.4416767.38       111460.4416767.38       111460.4416767.38
Encroach Node=190.37  
       111346.7816637.73       111346.7816637.73       111346.7816637.73
Encroach Node=190.32  
       1   1085016297.73       1   1085016297.73       1   1085016297.73
Encroach Node=190.31  
       4       1               4      .1               4      .1        
Encroach Node=190.29  
       110698.3515837.81       110698.3515837.81       110698.3515837.81
Encroach Node=189.47  
       1 6641.6914099.03       1 6641.6914254.01       1 6641.6914099.03
Encroach Node=188.88  
       1 4347.6814968.27       1 4347.6815273.71       1 4347.6814968.27
Encroach Node=188.43  
       1 4371.8115453.62       1 4371.8115510.04       1 4371.8115453.62
Encroach Node=188     
       1 4127.0315970.09       1 4127.0315984.78       1 4127.0315970.09
Encroach Node=187.41  
       1 3363.5115431.98       1 3363.5115431.98       1 3363.5115431.98
Encroach Node=186.82  
       1 3198.7714836.47       1 3198.7714836.47       1 3198.7714836.47
Encroach Node=186.36  
       1 4944.6615524.89       1 4944.6615524.89       1 4944.6615524.89
Encroach Node=185.76  
       1 5477.6314553.78       1 5477.6314553.78       1 5477.6314553.78
Encroach Node=185.18  
       1 6391.5212994.21       1 6391.5212994.21       1 6391.5212994.21
Encroach Node=184.56  
       1 6046.5610005.02       1 6046.5610005.02       1 6046.5610005.02
Encroach Node=183.98  
       1    4168  7454.6       1 4255.41  7454.6       1 4255.41  7454.6
Encroach Node=183.38  
       1    2187 5392.33       1 2272.23 5392.33       1 2272.23 5392.33
Encroach Node=183.30  
       1   501.7 3639.19       1   501.7 3639.19       1   501.7 3639.19
Encroach Node=183.28  
       1  695.69  3744.4       1  695.69  3744.4       1  695.69  3744.4
Encroach Node=183.275 
       1  695.69  3744.4       1  695.69  3744.4       1  695.69  3744.4
Encroach Node=183.27  
       1  696.58 3700.06       1  696.58 3700.06       1  696.58 3700.06
Encroach Node=183.26  
       1  654.92 3620.41       1  654.92 3620.41       1  654.92 3620.41
Encroach Node=182.90  
       1  -30.65 2855.52       1  -30.65 2855.52       1  -30.65 2855.52
Encroach Node=182.53  
       1   -2.63  2586.6       1   -2.63  2586.6       1   -2.63  2586.6
Encroach Node=182.525 
       1   -2.63  2586.6       1   -2.63  2586.6       1   -2.63  2586.6
Encroach Node=182.52  
       1   -5.41 2542.64       1   -5.41 2542.64       1   -5.41 2542.64
Encroach Node=182.50  
       1   -2.06 2628.72       1   -2.06 2628.72       1   -2.06 2628.72
Encroach Node=182.44  
       1   -1.44 2353.77       1   -1.44 2353.77       1   -1.44 2353.77
Encroach Node=181.90  
       1   -1.45 2655.32       1   -1.45 2655.32       1   -1.45 2655.32
Encroach Node=181.33  
       1  -11.39 2396.21       1  -11.39 2396.21       1  -11.39 2396.21
Encroach Node=180.77  
       1   -23.6 2249.56       1   -23.6 2249.56       1   -23.6 2249.56
Encroach Node=180.22  
       1  -12.32 2348.53       1  -12.32 2348.53       1  -12.32 2348.53
Encroach Node=180.215 
       1  -12.32 2348.53       1  -12.32 2348.53       1  -12.32 2348.53
Encroach Node=180.21  
       1  -13.77 2521.59       1  -13.77 2521.59       1  -13.77 2521.59
Encroach Node=180.20  
       1  -10.44 2681.25       1  -10.44 2681.25       1  -10.44 2681.25
Encroach Node=180.11  
       1  -15.96 2520.96       1  -15.96 2520.96       1  -15.96 2520.96
Encroach Node=180.03  
       1  -21.09 2453.25       1  -21.09 2453.25       1  -21.09 2453.25
Encroach Node=180.025 
       1  -21.09 2453.25       1  -21.09 2453.25       1  -21.09 2453.25
Encroach Node=180.02  
       1  -15.76 2460.01       1  -15.76 2460.01       1  -15.76 2460.01
Encroach Node=180.01  
       1  -20.43  2441.8       1  -20.43  2441.8       1  -20.43  2441.8
Encroach Node=179.53  
       1  -14.16 2532.49       1  -14.16 2532.49       1  -14.16 2532.49
Encroach Node=179.17  
       1-3.1E+38    2552       1-3.1E+38 3.1E+38       1-3.1E+38    2552
Encroach Node=179.16  
       1-3.1E+38 3.1E+38       1-3.1E+38 3.1E+38       1-3.1E+38 3.1E+38
Encroach Node=179.15  
       1   82.96 2546.41       1   82.96 2546.41       1   82.96 2546.41
Encroach Node=179.12  
       1   66.53    2527       1   66.53 2563.92       1   66.53    2527
Encroach Node=179.00  
       1   68.58 2577.93       1   68.58 2577.93       1   68.58 2577.93
Encroach Node=178.89  
       1   77.08    2849       1   77.08    3072       1   77.08    2849
Encroach Node=178.885 
       1   77.08    2849       1   77.08    3072       1   77.08    2849
Encroach Node=178.88  
       1   44.91 2845.88       1   44.91 2845.88       1   44.91 2845.88
Encroach Node=178.86  
       1   38.37 2854.64       1   38.37 2854.64       1   38.37 2854.64
Encroach Node=178.31  
       1  -31.52 3658.49       1  -31.52 3658.49       1  -31.52 3658.49
Encroach Node=177.91  
       1   -8.01 3450.09       1   -8.01 3450.09       1   -8.01 3450.09
Encroach Node=177.44  
       1  -12.09    3513       1  -12.09 3499.12       1  -12.09    3513
Encroach Node=176.96  
       1   25.18    4022       1   25.18  4003.5       1   25.18    4022
Encroach Node=176.56  
       1   -1.42 4773.65       1   -1.42 5255.43       1   -1.42 4773.65
Encroach Node=176.19  
       1  -13.33 5572.33       1  -13.33 6072.33       1  -13.33 5572.33
Encroach Node=175.80  
       1   12.81 6392.14       1   12.81 6792.14       1   12.81 6392.14
Encroach Node=175.33  
       1      70 5989.19       1      70 6389.19       1      70 5989.19
Encroach Node=174.38  
       1   65.42 4903.19       1   65.42 4903.19       1   65.42 4903.19
Encroach Node=174.00  
       1   44.35 5196.71       1   44.35 5596.71       1   44.35 5196.71
Encroach Node=173.46  
       1       0 4997.36       1       0 5597.36       1       0 4997.36
Encroach Node=172.97  
       1   18.99 4373.62       1   18.99 4775.93       1   18.99 4373.62
Encroach Node=172.41  
       1       0 4716.28       1       0 5137.78       1       0 4716.28
Encroach Node=171.88  
       1    16.6 5213.26       1    16.6 6062.04       1    16.6 5213.26
Encroach Node=171.46  
       1   1426419547.63       114336.9619897.63       114336.9619547.63
Encroach Node=171.01  
       1   1363118875.92       113747.2518875.92       113747.2518875.92
Encroach Node=170.60  
       1   1311118016.74       113203.8518016.74       113203.8518016.74
Encroach Node=170.15  
       1   1269317878.25       112724.1217878.25       112724.1217878.25
Encroach Node=169.79  
       1   1210117423.64       112129.6217430.81       112129.6217423.64
Encroach Node=169.46  
       1   1148217133.48       111657.1617133.48       111657.1617133.48
Encroach Node=169.10  