Geom Title=winooski
Program Version=6.50
Viewing Rectangle= 1445625.43683889 , 1462180.36751716 , 744982.531149583 , 722005.774207564 

River Reach=Mainstem        ,Reach 1         
Reach XY= 42 
1461427.87066815725797.0387501411460676.09667874725334.408602813
1459230.37746834725681.3812133091457958.14456319725941.610671181
1457524.42880007726057.2682080131457379.85687903726230.754513261
1457350.94249482726606.6415079641457177.45618958 726953.61411846
1457148.54180537727358.4154973721457350.94249482728023.446334155
 1457264.1993422729151.1073182661457003.96988433730105.281997129
  1456541.339737730654.6552970811456107.62397388 730943.79913916
1455500.42190551 731232.942981241454777.56230031731695.573128568
 1454372.7609214732216.0320443111454141.44584774732967.806033719
1454025.78831091733285.8642600061453476.41501096 733517.17933367
  1452927.041711733575.008102086 1452551.1547163733170.206723175
1452146.35333739732476.2615021831451568.06565323732042.545739064
1451018.69235328732158.2032758951450527.14782174732649.747807431
1450266.91836387 733372.607412631450440.40466912734153.295786246
1450960.86358486734587.0115493651452117.43895318734905.069775653
1452724.64102155735223.1280019411452782.46978996735627.929380852
1451510.23688481735830.3300703081450527.14782174735743.586917684
1450064.51767442735049.6416966931449428.40122184734644.840317781
1448734.45600085735338.7855387731447895.93885882735685.758149268
1447635.70940095736639.9328281311448300.74023773737912.165733282
1447664.62378515738750.6828753141447346.56555887739126.569870017
Rch Text X Y=1457907.5443908,729129.4215301
Reverse River Text= 0 

Type RM Length L Ch R = 1 ,30186   ,1511.9,1511.9,1511.9
XS GIS Cut Line=3
1460589.35352612723050.1722503831459866.49392092726866.870965836
1460762.83983137728890.877860394
Node Last Edited Time=Jan/09/2025 15:13:45
#Sta/Elev= 206 
       0  298.86     9.5  298.62    31.2  297.97      63  297.43    77.6   297.2
   112.2   296.6   145.8  296.46     163  296.43   193.2  296.33   213.9  296.02
   262.9   294.9   274.3  294.71     282  294.67   436.3  294.61   517.3  294.32
   554.4  294.13   562.7  294.07   598.3  293.87   622.5  293.97   662.7  294.03
   679.3  294.08   690.7  294.02   750.5  293.92   760.3  293.92   826.9  294.32
   862.6  294.48     895  294.76   922.4  294.82   963.1  294.55  1003.4  294.19
  1031.2  293.79  1062.5  293.99  1084.4  293.81  1099.3     292  1162.4  285.94
  1165.4   285.6  1167.5  285.06  1178.3  282.11  1235.6  267.02  1246.4   264.9
  1262.3  259.29  1303.7  242.68  1327.4  234.85  1362.3  222.96  1371.8  220.15
  1408.4  206.85  1439.9  202.72  1462.2   200.2  1489.5  196.78    1508  195.54
  1562.2   190.4  1570.5  189.77  1576.1  189.37    1606   186.3  1644.2  182.31
  1651.5  180.95  1662.1  179.92  1712.4  175.65  1732.5  173.58  1762.1  170.26
  1780.5  167.21  1813.5  164.33  1848.6  159.63    1862  157.94  1894.5  153.67
  1916.7  148.73  1961.9  137.71  1975.5  134.59  1984.8  132.22  2033.8  117.97
  2052.9  112.01  2056.6  110.81  2061.9   110.1    2121   101.6  2137.6   99.45
  2161.8   99.23  2189.2      99  2218.6   98.72  2299.6    99.5  2325.4   99.68
  2361.7  100.01  2380.6  100.15  2461.6   99.78  2529.7   99.07  2542.6   99.17
  2561.6   99.99  2597.8  101.33  2623.7  102.53  2704.7  104.45  2734.1   104.1
  2761.5  103.55  2785.7   103.2  2802.2   102.5  2861.4   99.01  2866.7   98.76
  2870.3   99.01  2889.3  100.03  2938.4  102.78  2947.7  103.29  2961.4  104.39
  3006.5  109.32  3028.7  110.81  3061.3  113.86  3074.6  115.24  3109.7  118.38
  3142.7  122.62  3161.2   125.6  3190.8   129.7  3210.9  133.76  3261.2   145.8
  3271.8  148.06    3279  148.98    3317  153.58  3352.8   157.8  3433.8  161.16
  3461.1  161.36  3483.3  161.56  3514.8  161.77  3551.4  162.19  3619.5  162.92
    3661  163.09  3676.8  163.22  3744.8   170.7  3757.8  172.17  3823.9  175.45
  3838.9  176.15  3884.5  175.72  3922.5  175.69  3930.6  175.86  3948.8  176.04
  3990.9  176.77  4009.6  177.38  4051.2  177.83  4057.9  177.75  4096.6  177.64
  4111.6  177.67  4145.4  177.39  4171.9   177.4  4183.7  177.26  4214.1  177.76
  4232.2   178.1  4270.7  178.62  4292.6  179.53  4341.9   182.1  4352.9  182.86
  4357.8  183.17  4370.4  183.83  4413.3  186.12  4444.8   187.7  4473.6  189.54
  4526.6  192.63  4531.9  192.95  4533.9  193.07  4538.5  193.34  4594.3  198.42
    4619  201.52  4654.6  206.08  4682.9   210.7    4706  214.16  4714.9  215.34
  4735.1  218.16  4775.3  222.59  4793.1  224.24  4835.6  227.51  4839.2  227.68
  4880.1  230.12  4895.9  230.63  4931.7  231.34  4956.3  231.49  4967.2   231.7
  4995.4  232.32  5016.6  232.67  5054.2  233.82  5076.9  234.97  5128.2  238.33
  5141.3  239.09  5151.7   239.9  5197.6  243.74  5228.3  245.81  5257.9  246.57
  5307.9  247.54  5315.4   247.7  5318.3  247.71  5324.8  247.72  5402.4  247.49
    5439   247.2  5464.2  247.05  5489.5  246.88  5521.4  246.73  5576.6  246.38
    5620   246.2  5663.6  245.88  5680.3  245.87    5718  245.96  5740.6  246.23
  5750.7  246.36    5801   248.1  5837.7   249.3  5861.3   249.9  5924.8  251.34
  5932.9  251.47    5982  252.06  6011.8  252.69  6042.3  253.68  6089.2  256.13
6098.152  256.53
#Mann= 4 ,-1,0
       0      .4       0  1894.5     .03       0  3433.8      .4       0
6098.152      .4       0
Bank Sta=1894.5,3433.8
XS Rating Curve= 0 ,0
XS HTab Starting El and Incr=99.22,1, 100 
XS HTab Horizontal Distribution= 5 , 5 , 5 
Exp/Cntr(USF)=0,0
Exp/Cntr=0.3,0.1

Type RM Length L Ch R = 1 ,28674   ,2500.8,2500.8,2500.8
XS GIS Cut Line=2
1457929.23017898723946.5181608311459953.23707354 729093.27854985
Node Last Edited Time=Jan/09/2025 15:13:45
#Sta/Elev= 203 
       0  307.62    10.6  307.65    48.4  306.08    64.8   304.8    96.2  302.84
   109.8  302.15   144.5   299.4   171.2  297.05   181.7  296.23   205.8  295.25
   232.6  293.94   267.2  292.87     294  292.71   346.8  292.63   352.8  292.61
   355.4  292.62     362  292.58   416.8  292.51   438.3   292.5   478.2  290.75
   487.7  289.95   523.8  287.57   539.6  284.57   579.5  277.96     601  275.58
   609.4  275.04   628.7  272.84   662.3   268.5   694.9  265.44   723.7  262.58
   769.7  258.59   780.4   257.6   785.1  257.27     797  254.89   846.5  245.17
     866  241.76   907.9  236.36   910.7  235.76   951.5  228.51   969.3  227.25
  1014.5  222.53  1030.7  220.78    1037  220.05  1051.6  219.96  1092.1  219.93
  1122.6  219.51  1153.5  219.05  1192.6  218.25  1208.1  217.96  1214.9  217.77
    1232  217.53  1276.2  216.35  1293.6  216.03  1333.6  213.99  1337.6  213.76
  1379.2  211.99    1399  210.47  1449.5  206.95  1460.4  206.06  1464.7  205.75
  1474.5  204.73  1521.8  199.87  1550.2  196.85  1583.2  194.42  1615.5  191.89
  1635.8  190.34  1644.6  186.39    1667  176.76    1706  159.85  1721.3  153.78
  1767.4  137.33  1806.8  123.16  1828.8  117.98  1884.5  104.97  1890.2  103.67
  1892.4  103.19  1897.4  102.97  1951.5  100.16  1977.9   99.35  2012.9   99.48
  2038.4   99.76  2063.4   99.95  2074.3  100.82    2102  103.07  2135.7   105.6
    2149  106.51  2197.1  108.31  2234.5  109.72  2258.5  109.98    2320  111.06
  2381.3  113.39  2405.6  115.46  2442.7  125.38  2461.3  132.11  2491.1  141.64
  2504.1  144.45    2537  150.12  2565.4   153.2  2576.6  154.39  2602.3  155.35
  2626.8   156.2  2662.2  157.65  2747.7  158.61  2749.6  158.65  2754.5   158.8
    2811  160.46  2833.2  161.17  2872.4  164.08  2918.8  167.46  2933.8  167.47
  2995.2  167.35  3004.3  167.35  3025.2  166.94  3056.6  166.38  3089.8  165.67
    3118  165.25  3166.2  164.18  3179.4  163.93  3260.9     163  3302.1  161.07
  3307.2   160.9  3346.4  159.34  3363.5  159.93    3407  162.47  3424.9  163.67
    3432  164.21  3448.1  165.74  3486.3  169.66  3517.5  172.29  3547.7  174.04
  3589.1  175.02    3603  175.55  3609.1  175.61  3624.5  176.07  3670.5  177.72
  3688.6  178.08  3731.9  178.53  3774.1  178.87  3793.3  178.95    3842  178.97
  3854.6  178.95  3859.6  178.93    3871  178.81    3916  178.42  3945.2  178.07
  3977.4  177.42    4012  176.52  4030.7  176.09  4038.8  175.88  4100.2  174.81
  4116.2   174.6    4153  174.47  4161.6  174.38  4201.7  174.62    4223  175.33
    4277  178.81  4284.4  179.48  4287.3  179.84  4293.9  180.82  4345.8  188.08
  4372.8  192.26  4407.2  197.07  4434.9  200.22  4458.3  203.14  4468.5  204.27
  4494.5  206.59  4529.9  209.96  4543.9  211.03  4575.9  215.28  4591.3  217.41
  4629.4  222.19  4652.7  224.27    4712  228.87  4714.9  229.05  4775.5   228.5
  4800.5  228.32  4836.9   228.3  4857.8  228.22    4886  228.14  4898.3   228.3
  4929.5  228.57  4959.7  228.79  4971.5  228.97  4998.8  229.75  5021.1  230.16
  5057.1  231.64  5082.5   233.9  5139.8  240.59  5142.6  240.89    5147  241.65
  5205.2  250.21  5228.1  252.69  5266.6  252.56  5280.7  252.63  5313.7  252.68
    5328  252.59  5364.5  252.18  5389.4  251.81  5399.2  251.65  5421.7  251.13
  5450.8  250.52  5484.7  249.645530.438  248.73
#Mann= 4 ,-1,0
       0      .4       0  1550.2     .03       0  2626.8      .4       0
5530.438      .4       0
Bank Sta=1550.2,2626.8
XS Rating Curve= 0 ,0
XS HTab Starting El and Incr=99.85,1, 100 
XS HTab Horizontal Distribution= 5 , 5 , 5 
Exp/Cntr(USF)=0,0
Exp/Cntr=0.3,0.1

Type RM Length L Ch R = 1 ,26173   ,973.35,973.35,973.35
XS GIS Cut Line=4
1455991.96643705726201.8401290531456628.08288963  727098.1860395
1457755.74387374727531.9018026191459374.94938938728630.648402523
Node Last Edited Time=Jan/09/2025 15:13:45
#Sta/Elev= 148 
       0  233.19    45.3  226.92    77.2  221.39   102.4   213.9   137.9  203.15
   159.5  196.99   174.8  192.55   216.6  180.95   265.1  167.99   272.4  166.02
   275.4  165.86   330.7  162.61     370  161.01   387.8  160.51   444.9  158.46
   467.6  157.55     502  158.64   550.5  164.25   559.1  164.98   565.2  165.43
   601.3  162.63   616.2  161.49   662.8  157.43   673.3  154.49     688  150.38
   730.4  136.97   760.4  130.27   787.5   128.6   825.6   126.9   844.6  126.18
   901.6   125.1   963.1  124.04  1053.3  122.12  1072.9  121.76  1099.1  121.35
  1132.4  121.58  1165.8  121.26  1185.3  121.22    1194  121.13  1216.7  120.77
  1255.6   120.1  1270.6  119.72  1304.3  118.19  1317.2  117.73  1355.9   115.5
  1378.8  112.41  1438.4   104.8  1440.4  104.57  1441.2  104.51    1502  100.45
  1526.5   98.92  1563.6   98.28  1581.5   98.13  1611.8   97.77  1625.2    98.2
  1660.1   99.62  1686.8  100.57    1697   100.8  1720.1  101.68  1748.4  102.69
  1782.3  104.08    1810  105.87  1858.7  109.71  1867.6  110.36  1881.9  110.69
  1933.2  111.58  1952.9  112.11  1994.8  111.86  2056.3  111.44  2103.6  110.98
  2117.9  110.82  2123.5  110.74  2135.9  110.54  2179.5  109.75  2208.7  109.32
  2241.1  109.31  2274.4  109.47    2294  109.52  2302.7  109.58  2318.8   109.6
  2360.3   109.4  2388.5   109.1  2417.7  108.75  2460.6  108.27    2475  108.26
  2484.7  108.56  2532.3  112.28  2535.6  112.75  2580.9  118.66  2589.6  119.65
  2602.4  121.59  2646.9  131.01  2677.1  139.62  2704.2  146.91  2744.1  157.82
  2761.5  161.01  2773.3  162.62  2818.8  164.05  2834.9  162.82  2869.5  160.88
  2876.1  160.02  2885.9  159.66  2933.4  158.78  2965.7  161.31  2990.7  165.11
  3027.6  168.29    3048  169.49  3061.9  169.99  3105.3     171  3158.1  172.17
  3162.7  172.42  3169.4  172.84    3220  176.19  3254.3  177.81  3277.3  178.31
  3311.2  178.83  3334.6  179.11  3350.5  179.14  3391.9  179.14  3446.7  179.02
  3449.2     179  3452.9  178.93  3506.5  177.67  3542.9   176.7  3594.7   175.5
  3621.1     175    3639  174.81  3678.4  174.81  3736.4  175.29    3793  176.46
  3831.4  177.37  3850.3  178.32  3878.2  180.45  3907.7  183.69  3927.6  186.69
    3965  192.09    4020  196.65  4022.3  196.83  4023.8  196.95    4032  197.58
  4079.6  201.18    4120  204.66  4136.9  207.46  4161.7  211.34  4194.2  215.68
  4216.2  217.87  4251.5     2214264.121  222.16
#Mann= 4 ,-1,0
       0      .4       0  1255.6     .03       0  1952.9      .4       0
4264.121      .4       0
Bank Sta=1255.6,1952.9
XS Rating Curve= 0 ,0
XS HTab Starting El and Incr=98.27,1, 100 
XS HTab Horizontal Distribution= 5 , 5 , 5 
Exp/Cntr(USF)=0,0
Exp/Cntr=0.3,0.1

Type RM Length L Ch R = 1 ,25199.6*,973.35,973.35,973.35
XS GIS Cut Line=4
1455267.29968284726331.9548579891456042.83407779  727502.8830065
1457270.19440112728307.3742538031459076.76980224729957.095778063
Node Last Edited Time=Jan/09/2025 15:17:50
#Sta/Elev= 216 
       0  232.28   17.42  230.98   35.96  229.55   49.49  228.37   66.21  226.72
   79.05  222.55   90.62  218.19  102.02  214.28  115.03  210.14  127.11  207.69
  139.44   204.7  163.83  200.76  195.49  195.65  212.65  192.85  226.68  190.59
  261.44  185.32  285.85  181.58  304.58  179.18  320.16  177.61   330.8  176.39
  351.32  173.26   366.9  170.54  380.72  168.21  398.06  165.44  413.64  163.06
   423.8  161.59  436.48  159.78   448.5  158.04  481.08     157  522.69  155.77
  544.49  155.06  596.19  153.97  609.19  153.66  631.75  153.27  647.33  152.95
  725.47  151.65  749.51  151.11  768.58  150.64  798.33  151.11  826.52  151.59
  847.12  152.86  896.63  155.91  920.35  157.21  930.58  157.63  974.53   155.9
  990.02  155.27 1014.55  154.05 1036.85  152.97 1066.76  151.69 1091.17  150.58
 1113.34  147.25 1132.77  144.39 1188.78  135.01 1199.53  133.24 1213.19  131.53
 1237.57  128.37 1251.97  126.67 1286.39  125.48 1296.59  125.15  1310.8  124.83
 1328.81  124.61 1348.47  124.29 1359.32  124.06  1371.9  123.84  1390.6  123.44
 1410.79   123.2 1441.95  122.94 1456.06  122.86 1481.62  122.63 1504.27  122.41
 1530.41  122.06 1551.01  121.87 1579.23  121.65 1660.07  120.83 1753.57   119.8
 1766.49  119.67 1784.73  119.48 1800.31  119.26 1823.25  119.27 1847.66  119.41
 1864.46  119.31 1878.21  119.05 1889.04  118.82 1906.17  118.79 1919.45  118.94
 1932.15   119.1 1951.55  119.16 1965.88  119.09 2002.85  118.75 2018.43  118.61
 2034.01  118.51 2061.43  118.36  2067.3   118.3 2081.87  117.96  2114.6  116.61
 2127.13   116.2 2164.72  114.22 2182.67  112.03 2243.19  104.92 2278.11  102.55
 2306.63  100.77 2330.42   99.37 2366.46   98.73 2383.84   98.57 2413.28    98.2
 2426.08   98.52 2454.09   99.53 2466.28  100.02 2493.72  100.98 2505.86  101.26
 2532.11  102.16    2561     103 2594.12  104.08 2612.64  104.99 2627.07  105.74
  2656.2   107.6 2679.31  109.12 2691.88  109.76 2704.19     110 2759.22  110.76
 2780.35  111.22 2828.84  110.93 2893.13  110.54 2921.01  110.29 2954.74  110.11
 2967.92  110.02 2982.94  109.84 3042.56  108.94 3076.35  108.52 3113.85  108.49
 3152.38  108.68 3175.06  108.77 3185.13  108.85 3202.34  108.89 3251.78  108.69
 3312.24  108.15 3367.85  107.62 3384.51  107.59 3395.73  107.83 3450.81  111.01
 3461.93  112.13 3506.37  116.49 3517.12  117.43 3530.57  118.97 3551.79   122.3
 3581.73  127.09 3611.67  133.48 3624.38  136.13 3649.73   141.3 3671.28  145.77
  3695.9  150.83 3716.04   153.6 3729.69  155.01 3782.34  156.26 3800.97   155.2
 3837.58  153.64 3848.65  152.74 3859.99  152.44  3881.1  152.27 3905.71  151.98
 3920.42  152.12 3952.33  153.96 3981.26  157.22 4023.96  159.92 4047.57  160.94
 4060.72  161.29 4174.97  163.24 4187.08  163.78  4246.6  166.79 4286.29  168.23
 4312.91  168.71 4352.13  169.26 4379.21  169.58 4421.55  169.72 4445.52  169.76
 4500.04  169.73 4511.82  169.69 4535.25  169.26 4578.13  168.49 4620.25  167.64
 4680.19  166.67 4710.74  166.28 4731.46  166.14 4777.05  166.19 4843.54  166.64
 4909.66  167.73 4954.09  168.56 4975.97  169.41 4988.82  170.19 5008.25  171.45
 5018.76  172.41 5031.11   173.5 5042.39  174.57 5065.41  177.55 5075.81  178.86
 5108.57  183.24 5124.92  184.46 5138.51  185.62 5162.55  187.05    5175  187.93
 5186.22  188.94 5198.38  190.07 5218.68  191.52  5241.3  193.58 5258.25  195.53
 5288.05  199.29 5307.61  202.81 5318.13  204.46 5336.31  206.94 5348.06  208.41
 5359.39  209.92 5373.92  211.69 5399.37  213.99 5410.96  214.88 5437.93  216.69
 5454.83  217.89
#Mann= 3 ,-1,0
       0      .4       0  2067.3     .03       0 5454.83      .4       0
Bank Sta=2067.3,2780.35
XS Rating Curve= 0 ,0
XS HTab Starting El and Incr=98.54,1, 100 
XS HTab Horizontal Distribution= 5 , 5 , 5 
Exp/Cntr=0.3,0.1

Type RM Length L Ch R = 1 ,24226.2*,973.35,973.35,973.35
XS GIS Cut Line=4
1454542.63292863726462.0695869241455457.58526596  727907.5799735
 1456784.6449285729082.8467049871458778.59021509731283.543153604
Node Last Edited Time=Jan/09/2025 15:17:50
#Sta/Elev= 240 
       0  231.37   33.59  229.79   50.08  228.93   68.92  227.71   92.21  225.82
  103.87  221.38  120.37   213.9  142.07  204.53   160.2  197.61  177.01     194
  194.19  190.24  207.16   188.9  228.15  186.77  272.25  182.34  296.14   179.9
  315.68  177.96  330.13  176.59  398.09  170.27  410.16  169.33  424.17  168.64
  445.86  168.11  460.69  167.47  489.26  164.68  500.03  163.27  510.95   161.8
   530.2  159.38  554.35  156.65  568.02  155.21   590.2  153.14  602.01   152.1
  624.59  150.05  662.83  149.26  703.96  148.55  727.92  148.14  737.95  147.95
  758.27  147.51  771.32  147.32  814.71  146.81   839.9  146.46   889.2  145.77
   901.5  145.59  941.85  145.26 1010.32  144.68 1031.72  144.37 1070.36   143.7
 1151.05  144.55 1205.29  146.61 1248.69  148.26 1262.26  148.82 1281.71  149.44
 1295.96  149.83 1357.17  148.44 1370.43  148.12 1383.66  147.76  1412.9   146.6
 1443.96  145.64 1485.61  144.66  1519.6  143.73 1530.75   142.7 1550.47  140.82
 1574.14   138.7 1595.84  136.53 1621.55  133.86 1655.54  130.41 1670.51  128.93
 1689.53  127.53 1704.36   126.2 1723.49  124.52 1743.54  123.06 1791.48  121.98
 1805.68   121.7 1825.47  121.44 1850.55   121.5 1877.93  121.39 1893.04  121.23
 1910.55  121.06 1921.33  120.92 1936.61   120.7 1964.72  120.46 1986.42  120.35
 2008.11  120.29 2029.81  120.29  2067.3   120.1  2094.9  119.93  2138.3  119.42
 2159.99  119.34 2181.69  119.28 2301.25  118.65 2369.23   118.2 2442.09  117.69
 2471.18  117.52 2485.48  117.37 2505.17   117.1 2520.16  117.05 2539.13  117.14
 2550.57  117.22 2573.13  117.31 2593.97  117.08 2607.12  116.85 2630.75   116.2
 2641.11  116.03  2654.6  116.25  2673.1  116.62 2690.79  116.96 2702.45  117.05
 2717.81   117.1 2732.95  117.07 2745.85  117.01 2767.54  116.85 2789.24  116.72
 2810.94  116.61 2832.63  116.57 2870.83  116.56    2879   116.5 2893.14  116.21
  2924.9  115.03 2937.06  114.68 2973.54  112.95 2990.96  111.05 3049.69  104.82
 3083.58  102.68 3111.25  101.08 3134.35   99.82 3169.32   99.19 3186.19   99.01
 3214.75   98.63 3229.54   98.92 3259.45    99.9 3272.47  100.41 3301.76  101.43
 3314.73  101.72 3342.75   102.6 3373.59   103.3 3412.42   104.3 3444.14  105.61
 3475.24   107.2 3499.92  108.52 3510.11  109.03 3526.49   109.3 3541.52  109.49
 3585.24  109.95  3607.8  110.32 3735.89   109.6  3769.9  109.31  3803.9  109.24
 3820.84  109.19 3848.32  108.87 3868.06   108.6 3905.63  108.14 3944.01  107.72
 3973.92  107.67 3986.59  107.68 4056.12  108.03 4067.56  108.11  4087.1  108.18
 4143.26  107.98 4211.94  107.48 4275.09  106.97 4294.02  106.91 4306.77   107.1
 4353.42  109.04 4369.33  109.74 4381.95   110.7  4406.7   112.5 4432.43   114.4
 4444.64   115.2 4459.92  116.52 4484.02  119.38 4518.02  123.48 4559.65  130.21
 4595.26   135.7 4619.74  139.54 4647.71  143.85 4670.58   146.2 4686.09  147.39
 4745.89  148.48 4767.05  147.57 4790.05  146.85 4808.62  146.23  4821.2  145.47
 4832.79  145.24 4858.06  145.22    4886  145.04 4896.51  144.85 4938.96  146.61
 4971.82  149.33 5020.32  151.56 5047.13  152.39 5062.08  152.68 5191.84  154.31
  5205.6  154.77  5273.2  157.38  5300.1  158.12 5318.28  158.65 5348.51  159.12
 5423.83  160.05 5467.03  160.29 5525.14  160.41 5561.06  160.42 5571.16   160.4
 5601.06  159.99 5649.76  159.31  5697.6  158.59 5738.18  158.12 5765.69  157.84
 5800.38  157.56 5823.91  157.47  5875.7  157.58 5951.22     158 6026.32     159
 6076.79  159.75 6101.63  160.51 6116.23  161.21  6138.3  162.44 6150.23  163.37
 6164.27  164.38 6177.07  165.45 6215.04  169.73 6252.24  174.41 6270.82  175.66
 6286.25  177.01 6313.55  178.15 6324.09  178.68 6337.83  180.02 6354.25  181.77
 6377.31  183.33 6388.26   184.5 6403.01  185.97 6422.26  188.62 6456.11  193.91
 6478.32  198.16 6490.27  200.05 6501.62  201.32 6524.27  204.12 6537.14  205.84
 6553.63  207.71 6582.55   210.1 6595.71     211 6626.34  212.55 6645.53  213.63
#Mann= 3 ,-1,0
       0      .4       0    2879     .03       0 6645.53      .4       0
Bank Sta=2879,3607.8
XS Rating Curve= 0 ,0
XS HTab Starting El and Incr=98.81,1, 100 
XS HTab Horizontal Distribution= 5 , 5 , 5 
Exp/Cntr=0.3,0.1

Type RM Length L Ch R = 1 ,23252.8*,973.35,973.35,973.35
XS GIS Cut Line=4
1454193.15848995726244.7840915311454872.33652752728312.276889746
1456299.09551677729858.3190589171458480.41066534732609.990362792
Node Last Edited Time=Jan/14/2025 14:48:07
#Sta/Elev= 263 
       0  230.46   43.05   229.1    64.2  228.31   74.68  227.89   88.35  227.05
   98.68  226.48  118.21  224.91  133.15  218.61  154.31  208.01  182.13  194.77
  205.37  185.09  218.08  182.13  237.75  177.77  248.95  175.78  265.57  174.61
  292.48  172.77  349.01  169.03  379.63  166.95  404.69  165.33  448.88  162.63
  468.83  161.47  510.32  158.96   525.8  158.28  543.76  158.09  571.57  158.62
  590.57  158.56  602.77  158.34   627.2   156.1  641.01  154.62  655.01  153.07
  679.68  150.56  710.64  147.86  728.17   146.5  738.45   145.8   756.6  144.69
  771.75  143.81  800.69  142.07  833.57  141.58  858.85  141.25  902.43  140.82
  933.15  140.52  946.01  140.36  960.97  140.11  972.06  139.96  988.78  139.79
 1033.12   139.5 1064.36  139.24  1076.7  139.11 1087.57  138.97 1100.04  138.86
  1139.9   138.4 1155.67  138.22 1295.16  137.71 1307.74  137.59 1372.13  136.76
 1475.57   137.5 1545.11  139.23 1555.92  139.47 1600.74   140.6 1618.14  141.11
 1643.08  141.68 1661.34  142.03 1739.81  140.98 1767.46  140.54 1811.25  139.16
 1823.25  138.82 1851.07   138.3 1904.45  137.63 1948.03  136.88 1962.32     136
 1987.61  134.39  2022.3   132.4 2078.72  128.64  2122.3   125.8 2141.49  124.62
 2165.88  123.53 2184.88  122.26 2209.41  120.68 2235.11  119.46 2296.57  118.47
 2314.77  118.25 2340.15  118.05 2351.77  118.12 2372.29  118.38 2383.68  118.57
 2426.76  118.39 2449.21  118.29 2463.02  118.17 2482.61  117.96 2518.65  117.72
 2546.46  117.64 2574.28  117.64 2599.47  117.73  2645.1  117.61 2680.06  117.48
 2741.16  116.85 2796.79   116.8 2824.61  116.72 2963.68  116.33 3037.21  116.03
 3064.74  115.93 3130.61  115.58 3153.67   115.5  3167.9  115.44 3186.24  115.27
 3211.48  114.93 3230.69   114.9 3255.01  115.01 3269.68   115.1 3298.59  115.21
 3328.57  114.78 3342.17  114.51 3353.12  114.15 3372.46  113.58 3385.75  113.34
 3403.03   113.7 3426.74  114.31 3449.42  114.81 3464.38  114.95 3492.19  115.07
 3503.48  115.03 3520.01  114.98 3547.82  114.81 3575.63   114.7 3603.45  114.61
 3631.26  114.64 3659.08  114.73 3680.22  114.75  3690.7  114.71 3704.41  114.45
 3735.21  113.45    3747  113.15 3782.36  111.67 3799.25  110.073849.365105.3613
 3856.19  104.72 3889.05  102.82 3915.88   101.4 3938.27  100.27 3958.33   99.88
 3972.18   99.64 3988.53   99.45 4016.22   99.06    4033   99.31 4064.81  100.27
 4078.65  100.81  4109.8  101.88 4123.59  102.17 4148.08  102.87 4227.48  104.41
 4261.21  105.49 4294.28  106.79 4320.52  107.93 4331.36  108.37 4348.78  108.61
 4364.77  108.77 4379.79  108.87 4411.26  109.13 4435.25  109.43 4578.66  108.65
4593.915108.5252 4614.12  108.36 4673.77  108.35 4686.29  108.24 4733.35  107.68
 4768.69  107.33 4811.66  106.93 4831.98  106.86 4852.64  106.85 4908.34  107.11
 4937.18  107.28 4949.98  107.38 4971.87  107.47 5034.74  107.27 5182.34  106.32
 5203.53  106.24  5217.8  106.37 5253.15  107.39 5287.84  108.47 5301.98  109.26
 5329.68  110.74  5358.5   112.3 5372.16  112.98 5389.26  114.08 5448.91  119.39
 5463.77  120.98 5492.39  124.49  5540.8  130.09  5568.2  133.31 5599.51  136.86
 5625.11  138.79 5642.48  139.78 5709.43  140.69 5733.12  139.95 5779.67  138.83
 5793.75  138.19 5806.72  138.01 5835.01  138.17  5866.3   138.1 5878.07  137.88
  5925.6  139.25 5962.38  141.43 6016.68  143.19 6045.24   143.8 6063.43  144.07
 6208.72  145.38 6225.34   145.8  6299.8  147.98 6343.34  148.91 6384.12  149.52
 6411.53  149.81    6434  150.11 6468.44  150.52 6516.81  150.86 6552.75  150.99
 6581.86  151.07 6622.08  151.11 6633.39  151.08 6666.87  150.71 6721.39  150.13
 6748.74  149.79 6774.95  149.53 6820.38  149.19 6851.18  149.01 6890.03  148.84
 6916.37   148.8 6974.34  148.96  7058.9  149.36 7118.55     150  7167.5  150.57
 7178.19  150.68 7199.48  150.94  7227.3   151.6 7237.84  151.97 7253.94  152.69
 7268.35  153.44 7281.71  154.33 7297.42  155.26 7311.76  156.34 7357.07  160.87
 7395.92  165.58 7416.71  166.86 7433.99   168.4 7464.56  169.25 7476.36  169.71
 7491.75  171.31 7510.13  173.47 7535.94  175.15  7548.2  176.59 7564.71  178.37
 7586.27  181.71 7624.16  188.54 7649.03  193.52 7662.41  195.63 7675.12  196.87
 7685.52  198.14 7700.47  199.83 7714.88  201.76 7733.35  203.72 7765.72  206.22
 7776.61  206.96 7814.75  208.42 7836.24  209.36
#Mann= 3 ,-1,0
       0      .4       0  3690.7     .03       0 7836.24      .4       0
Bank Sta=3849.365,4593.915
XS Rating Curve= 0 ,0
XS HTab Starting El and Incr=99.08,1, 100 
XS HTab Horizontal Distribution= 5 , 5 , 5 
Exp/Cntr=0.3,0.1

Type RM Length L Ch R = 1 ,22279.5*,973.35,973.35,973.35
XS GIS Cut Line=6
1453190.57147844725152.050104585 1453187.5159881725812.472642779
1453298.68405467726548.9610837641454287.08764229728716.973907499
1455813.54598326730633.791607354 1458182.2310408733936.437904686
Node Last Edited Time=Jan/14/2025 14:47:59
#Sta/Elev= 285 
       0  229.54   37.94  228.74   52.52  228.41   78.32  227.69    91.1   227.3
  107.78  226.38  120.39  225.79  144.21  224.01  154.32  219.99  172.15  210.84
  188.25  202.13  222.18  185.02  250.53  172.57  266.05  168.88  276.83  166.61
  290.04   163.6   303.7  161.32  323.97  160.32   356.8  158.77  425.77  155.72
  463.13     154  493.69   152.7  547.61  150.53  569.39  149.72  622.56  147.65
  641.44  147.24  663.34  147.55  675.72  148.11  697.28  149.13  720.46  149.64
  731.21   149.9  765.14  147.52  781.99  145.98  799.07  144.33  829.17  141.73
  866.93  139.08  888.31  137.79  900.86  137.16     923  136.23  934.79  135.77
  950.61  135.15  976.79  134.08 1016.89  133.65 1047.74  133.38 1100.91   133.1
 1138.38   132.9 1154.07  132.78 1172.31  132.54 1185.84  132.41 1206.24  132.25
 1260.34  132.08 1298.45  131.87  1313.5  131.76 1326.77  131.63 1341.97  131.51
 1390.59  131.04 1409.83  130.85 1472.93  130.83 1486.18   130.8 1580.01  130.75
 1613.48  130.48 1676.75   129.8  1800.1  130.46 1844.95  131.19 1884.93  131.85
 1898.12  132.03 1952.79  132.95 1974.01   133.4 2004.44  133.91 2026.73  134.22
 2057.55  134.04 2122.45  133.52 2156.17  133.18  2209.6  131.71 2224.24  131.38
 2258.17  130.97 2270.14  130.86  2323.3  130.59 2376.47  130.03 2429.63  127.75
 2461.76  126.61 2495.69   125.2  2535.9  123.41 2589.06   121.2 2612.47  120.31
 2642.22  119.54 2665.41  118.32 2695.33  116.83 2706.31  116.53 2726.68  115.86
 2748.49  115.58  2767.2  115.39 2801.65  114.97 2823.86   114.8 2854.82  114.66
 2868.99  114.81 2902.92  115.44 2936.86  115.59 2960.48  115.55 2987.87  115.51
 3004.72  115.42 3028.61  115.21 3072.58  114.97 3106.51  114.92 3140.44  114.98
 3171.18  115.16 3226.84  115.11 3269.49     115    3280  114.93 3333.11  114.37
 3344.03  114.28 3377.96  114.29 3411.89  114.32 3445.82  114.26 3457.15  114.26
 3598.86  114.11 3705.19  113.86 3717.33  113.86 3832.61  113.44 3864.62  113.36
 3886.99  113.16 3917.78  112.76 3941.21  112.75 3970.89  112.87 3988.78  112.99
 4024.05  113.11 4056.65  112.58 4077.21  112.16 4090.58   111.7 4114.17  110.96
 4124.51  110.68 4151.47  111.16 4180.39  111.99 4208.06  112.67  4226.3  112.86
 4260.23  113.03    4274  112.99 4294.16  112.95  4328.1  112.77 4362.03  112.67
 4395.96  112.61 4429.89   112.7 4463.82  112.87 4489.62  112.95  4502.4  112.91
 4515.68  112.69 4545.51  111.87 4556.93  111.62 4591.18  110.39 4607.54  109.09
 4627.42  107.51 4662.69  104.62 4694.52  102.95 4742.19  100.72 4761.63  100.33
 4775.03   100.1 4790.88    99.9  4817.7   99.49 4836.46   99.71 4870.17  100.64
 4889.35  101.37 4917.84  102.33 4932.45  102.63  4958.4  103.31 5038.64  104.47
 5078.28  105.36  5100.1  105.98 5113.33  106.38 5141.13  107.34 5152.62  107.71
 5171.07  107.91 5188.01  108.05 5237.28  108.31  5262.7  108.54 5421.43  107.71
 5460.68  107.39  5505.7  107.49  5526.7  107.52 5540.55  107.41 5589.97  106.87
 5631.76  106.52 5679.32  106.13  5701.8  106.04 5724.67  106.03 5790.69  106.34
 5818.24  106.53 5832.41  106.64 5856.64  106.76 5884.92  106.71 5922.65  106.57
5965.733 106.366 6011.33  106.15 6089.58  105.67 6113.03  105.56 6128.83  105.64
 6186.65  106.75 6206.36   107.2    6222  107.82 6252.67  108.98 6284.56  110.21
 6299.68  110.76 6320.53  111.72 6390.62  116.27 6401.08  117.17 6432.75     120
 6486.33  124.48 6516.66  127.08 6551.31  129.87 6579.65  131.39 6598.87  132.17
 6672.98  132.91  6699.2  132.326726.033131.8775  6727.7  131.85 6750.72  131.42
  6766.3  130.92 6780.66  130.78 6811.97  131.12  6846.6  131.15 6859.62  130.92
 6912.23   131.9 6952.95  133.54 7013.04  134.83 7044.65  135.26 7068.91  135.49
 7106.92  135.65 7225.59  136.44 7242.63  136.76  7326.4  138.57 7359.73  139.09
 7374.59  139.35 7419.73  139.93 7440.61  140.12 7506.63  140.92 7566.58  141.43
 7638.59  141.72 7683.11   141.8 7695.63  141.77 7705.72  141.73 7732.67  141.43
 7781.16  141.06 7823.29  140.66 7865.43   140.4 7902.59  140.26  7949.7  140.16
  7968.6  140.15 7979.67  140.12 8008.82  140.13 8072.99  140.35 8166.58  140.71
 8286.78  141.81 8298.62  141.89 8322.18  142.13 8352.96   142.7 8364.63  143.01
 8382.45  143.68  8398.4  144.44 8413.19  145.29 8430.58  146.14 8446.45  147.22
  8496.6  151.74  8539.6  156.75 8562.61  158.07 8581.73  159.79 8615.57  160.35