Flow Title=14320639_nd
Number of Profiles= 21
Profile Names=53874,57394,64163,71735,81714,94437,110219,129685,154434,183710,217194,270228,312127,357958,407831,507490,571013,638526,711005,786889,806868
River Rch & RM=14320639,14320639        ,5.0     
   53874   57394   64163   71735   81714   94437  110219  129685  154434  183710
  217194  270228  312127  357958  407831  507490  571013  638526  711005  786889
  806868
Boundary for River Rch & Prof#=14320639,14320639        , 1
Up Type= 0 
Dn Type= 3 
Dn Slope=0.001
Boundary for River Rch & Prof#=14320639,14320639        , 2
Up Type= 0 
Dn Type= 3 
Dn Slope=0.001
Boundary for River Rch & Prof#=14320639,14320639        , 3
Up Type= 0 
Dn Type= 3 
Dn Slope=0.001
Boundary for River Rch & Prof#=14320639,14320639        , 4
Up Type= 0 
Dn Type= 3 
Dn Slope=0.001
Boundary for River Rch & Prof#=14320639,14320639        , 5
Up Type= 0 
Dn Type= 3 
Dn Slope=0.001
Boundary for River Rch & Prof#=14320639,14320639        , 6
Up Type= 0 
Dn Type= 3 
Dn Slope=0.001
Boundary for River Rch & Prof#=14320639,14320639        , 7
Up Type= 0 
Dn Type= 3 
Dn Slope=0.001
Boundary for River Rch & Prof#=14320639,14320639        , 8
Up Type= 0 
Dn Type= 3 
Dn Slope=0.001
Boundary for River Rch & Prof#=14320639,14320639        , 9
Up Type= 0 
Dn Type= 3 
Dn Slope=0.001
Boundary for River Rch & Prof#=14320639,14320639        , 10
Up Type= 0 
Dn Type= 3 
Dn Slope=0.001
Boundary for River Rch & Prof#=14320639,14320639        , 11
Up Type= 0 
Dn Type= 3 
Dn Slope=0.001
Boundary for River Rch & Prof#=14320639,14320639        , 12
Up Type= 0 
Dn Type= 3 
Dn Slope=0.001
Boundary for River Rch & Prof#=14320639,14320639        , 13
Up Type= 0 
Dn Type= 3 
Dn Slope=0.001
Boundary for River Rch & Prof#=14320639,14320639        , 14
Up Type= 0 
Dn Type= 3 
Dn Slope=0.001
Boundary for River Rch & Prof#=14320639,14320639        , 15
Up Type= 0 
Dn Type= 3 
Dn Slope=0.001
Boundary for River Rch & Prof#=14320639,14320639        , 16
Up Type= 0 
Dn Type= 3 
Dn Slope=0.001
Boundary for River Rch & Prof#=14320639,14320639        , 17
Up Type= 0 
Dn Type= 3 
Dn Slope=0.001
Boundary for River Rch & Prof#=14320639,14320639        , 18
Up Type= 0 
Dn Type= 3 
Dn Slope=0.001
Boundary for River Rch & Prof#=14320639,14320639        , 19
Up Type= 0 
Dn Type= 3 
Dn Slope=0.001
Boundary for River Rch & Prof#=14320639,14320639        , 20
Up Type= 0 
Dn Type= 3 
Dn Slope=0.001
Boundary for River Rch & Prof#=14320639,14320639        , 21
Up Type= 0 
Dn Type= 3 
Dn Slope=0.001