Proj Title=14320639
Current Plan=p03
Geom File=g01
Flow File=f01
Plan File=p01
Flow File=f02
Plan File=p02
Flow File=f03
Plan File=p03
Flow File=f03
Plan File=p03
Flow File=f03
Plan File=p03
Flow File=f03
Plan File=p03