Plan Title=14320639_nd
Short Identifier=14320639_nd
Geom File=g01
Flow File=f02
Run RASMapper=-1 