Geom Title=14320639
Program Version=631
Viewing Rectangle=1433180.1 , 1485079.08 , 296026.73 , 283078.22 

River Reach=14320639        ,14320639        
Reach XY= 42 
1481151.01726263295507.778312007   1481147.92085    295403.62977
   1481286.29563    294808.57669   1481830.52531    294127.47193
   1482475.17447    293648.72198   1483049.34209    293337.95376
   1483223.69409    293027.56326    1483298.5343    292714.97117
   1483162.33802    292500.43921   1482555.34619    292480.25986
   1482294.00849    292520.71126   1481683.41414    292470.42959
   1481259.00833    292375.03099   1480684.66561    292231.31132
   1480135.80565    292258.42115   1479611.65112     292519.4916
   1479071.06367    292908.64498   1478552.77422    293559.97313
   1478190.46645    294065.42572   1477948.06417    294425.36268
   1477691.03007    294633.91163   1477390.12243    294718.91629
   1477006.20824     294703.0712   1476644.39963     294601.7262
   1476439.03089    294400.41951   1476242.91141    294139.98092
   1476116.81489    293665.64476   1476101.47308    293114.76294
   1476191.83351    292638.26475   1476372.51772    292009.98591
   1476605.20048    291474.34274   1476985.64992    290637.38819
   1477412.16013    289777.75662   1477630.33953    289377.51534
   1477929.97809    288791.31535   1478285.70999    288260.09925
   1478696.79536    287709.81677   1479539.38259      286799.749
    1479742.4936    286651.86642   1480025.87656    286362.32296
   1480198.37054      286054.2981480218.75206202285972.771898664

Rch Text X Y=1479188.4565809786,291889.1400564216
Reverse River Text= 0 

Type RM Length L Ch R = 1 ,5.0     ,7065.07,6390.98,583.62
XS GIS Cut Line=5
      1484156.03       296026.73      1482012.18       295550.32
      1480285.19       295460.99      1469804.16       295014.36
       1433299.2       294686.83
Node Last Edited Time=Jul/08/2018 11:06:48
#Sta/Elev= 445 
       0  195.33   59.59  210.29    85.2  207.43   131.3  192.07  141.54  190.37
  264.47  185.19  305.44  182.15  428.37  182.15   459.1  190.22  524.08  189.86
  766.42  190.17  981.55   190.1 1160.82  190.77 1169.46  188.56 1237.65  188.44
 1270.04  191.09 1345.21   192.1 1375.94  196.27 1395.75  203.23 1408.33  202.68
 1438.81  192.27 1493.75  187.05 1567.57  186.37 1613.67  184.89 1662.77  186.31
 1729.36  190.74 1772.93  188.81 1823.21  188.86  1873.5  191.65 1948.93  189.34
 1999.22   190.1 2057.89  188.88 2225.51  188.78 2285.59  190.68 2334.24  190.02
  2440.8  190.79 2475.85  189.36 2550.95  191.43    2591  189.81 2611.03   175.4
 2656.09  171.34 2731.19  171.75 3056.63  166.92 3116.71  164.03 3176.79  159.09
 3196.81  159.25 3236.87  163.18 3256.89  169.28 3276.92  189.16 3296.95   193.1
 3362.04  192.33 3592.34  190.71 3742.54  190.05 3967.43  189.87 4102.95  189.21
 4298.13  190.01 4383.21  189.58 4453.27  190.72 4586.63  189.55 4692.23  190.72
 4803.59   188.4 4893.83  189.99 4963.73  187.04 5133.83  186.93 5335.43  187.36
 5384.12  186.98 5534.25  187.39  5584.3  186.95 5754.45   188.9 5863.43  187.99
 5984.66  189.15 6094.76  188.68 6199.86  187.53 6324.23  187.15 6500.13  187.21
 6665.28  188.34 6815.42  190.01 6985.57  190.46 7090.67  189.33 7135.71   190.7
 7225.79  190.82 7260.82  195.48 7280.84  192.78 7295.86  185.49 7315.87  186.65
 7335.89  195.88 7360.92  191.91    7451  190.91 7541.08  187.05 7601.13  186.64
 7681.21  188.17 7696.22  182.93 7721.24  188.37 7817.03  186.67 7971.47  186.23
 8041.53  187.64 8186.64   189.4 8316.23  189.17 8397.84  190.43 8456.91   190.1
 8587.03  191.48 8652.09  192.69 8702.14  191.91  8767.2  188.09 8787.21  183.07
 8807.23  187.92  8882.3  187.81 9007.85  185.95 9252.64  185.53 9545.03  185.68
 9637.99   190.2 9738.08  188.82 9818.15  190.17 9890.64   192.810058.64  192.67
10103.41  191.7310178.48  191.8910327.44  190.6710393.68  190.6310557.83  192.08
10663.92  191.9910703.96  190.8910723.98  186.2310759.44  186.2210774.02  191.38
10964.19  190.4711039.26  190.7211205.84  188.9611263.44  187.63 11414.6  187.66
11464.65  188.3811559.74  187.8311574.75  186.91 11739.9  186.9111769.93  189.27
11784.94  185.8511873.04  185.1412074.65  185.3412150.27  184.9812300.24  185.51
12380.48  185.1712621.05  185.1312685.76  185.9612700.77  185.1412865.93  185.17
12991.04  186.2413063.44  185.3413116.15  186.3913196.23  185.2813301.32  185.15
13336.35  185.8513406.42  184.8113457.04  185.7113516.52  185.1213591.59  185.99
13641.63  185.3513701.85  186.0413756.74  184.9713788.24  186.9713841.81  194.79
13916.88  199.2613946.91  195.5513961.92  197.1114011.97  197.12   14047   195.6
14147.09  195.75 14262.2  199.7414332.26  201.0914557.34  201.9514747.35  201.42
14863.09  199.3814937.44   199.214962.21  200.2515037.36  200.2115047.36  201.07
15177.37  201.7815237.37  201.2615337.38   201.515367.38  200.6815437.38  201.15
15447.38  200.2715562.39  199.1315757.74  196.1515792.39  195.7816117.41  200.41
16147.41  200.1516197.41  202.3416337.42   201.816387.42  200.0616492.42  193.08
16552.43     19116642.43  190.5216666.99  195.8516706.63  196.0816741.33  192.22
16771.07  192.9316810.71  199.22 16845.4  199.3616872.44  192.6716912.44  194.25
16977.45  193.1617063.45  193.2217132.45  194.1417162.45  196.3117217.08  196.43
17231.95   194.117272.46  194.0717445.05   197.617532.47  198.4617657.47   197.6
17802.48  200.0617952.49  199.9717987.49  197.9917997.49  199.5618327.16  199.13
18582.51  199.3318852.48  198.2119092.54  196.5519242.54  195.1319327.55  193.44
19457.55  192.3219699.91  192.4919927.87  194.1720041.86  190.8520107.58   188.3
20202.58  186.0420473.01  185.76 20547.6  185.3320682.61  186.16 20765.4  185.39
20953.72  185.3321127.16  186.2621429.47  186.4521562.64  185.9121707.65  186.28
21977.66   186.522217.43  187.3622417.68  186.5122642.69  186.8722742.69  187.41
23207.71  187.4923282.72  187.0823452.72  187.8323572.73  187.4623828.05  187.67
24217.76  187.5224262.76  186.9324333.54  184.36 24427.7   185.424457.44  183.42
 24472.3  188.3424507.77  187.2624625.92  186.7324737.78  187.3224829.11     187
 25182.8  188.02 25242.8  189.51 25267.8  185.2525428.76  185.4825437.81  186.92
25537.78  186.8525587.35  187.9925691.41   188.525924.33  188.4726097.79  186.83
26242.84   186.726563.63  185.9326942.87  186.2827147.88  185.8827337.89  186.17
27569.64  186.04 27612.9  186.71 27627.9  183.78 27653.9  187.8627728.23  185.74
27917.92  186.1428177.93  187.0728362.57  186.2928452.94  186.4828672.95  186.01
28982.96   186.229312.98  187.7829647.99  188.0929740.27  188.77   29873  188.43
 30072.3   189.330443.98  189.9830553.01  190.7730633.03  189.6930683.04  186.18
30708.04  189.5130780.97  188.4630989.11  187.9831268.06  188.1431479.73  186.98
31504.51  185.9231573.89  185.5931623.45  186.6131638.08  188.4231833.09  189.02
31896.02   190.131995.13  190.65 32168.1  190.4232223.09  189.7632618.12  187.94
32923.13   187.933058.14  188.3733148.14     18833253.89  188.3133453.16  187.61
33595.84  188.3433853.53  187.6333893.17  187.94 34463.2   187.534628.21  186.66
34873.22  186.4435053.23  186.9235163.23  187.7335288.24  187.3135498.24  187.21
35508.24  184.9635553.25  183.9835573.19  187.7335598.25  188.3135628.25  186.24
 35840.8  186.3336113.27  186.0636238.28   185.536433.28  185.7336453.29  187.04
36468.29  184.1136478.29  186.8636518.29  185.75 36838.3  185.6437063.31  185.36
37233.32   185.637428.33   185.437743.34  185.5238115.49  185.3338173.36  185.63
38705.22  185.6238794.43  185.7938823.39  187.2938833.39  184.2338843.39  189.06
38868.39  191.7138903.39   188.338913.36  183.9838948.67  186.3138953.39  187.84
 39103.4  187.77 39148.4  186.4739329.64  186.2739578.42  186.3639698.43  186.98
39773.43  186.5239873.43  186.8240143.44  186.0740693.47  185.95 40756.9  185.55
40983.48  185.9441188.05  185.26 41423.5  185.1441485.39  186.1941668.51  185.38
41688.51  188.9441718.51  185.3541753.51  185.9941833.52   185.542008.52  185.47
42050.35  186.2142129.64  185.2942323.54  186.0142363.54  185.2742600.44  185.58
42610.35  188.0742635.13   185.242888.56  185.6343203.58  185.7643457.79  186.38
43568.59  186.3544208.62  187.5544423.63  187.6644458.63   190.3   44553  192.37
 44587.7  192.2444633.64  195.4644678.64  195.8544691.77   198.244843.65  207.39
44908.65  206.9244978.65  205.1945043.63  206.7545223.66  210.0845353.67  213.43
45493.67  214.1545643.27  211.5945683.68  211.3645763.69  209.2645828.69  208.51
45928.69  211.02 45993.7  211.09 46053.7  210.07 46083.7  208.4946158.67   201.3
46218.71   196.846268.71  195.3446388.71  196.87 46401.5  192.4146416.36   196.9
46433.71  196.2546513.72  198.7646558.72  201.6146609.64  206.5246628.72  204.81
46788.73   204.646953.74  204.9847048.74  209.0447123.74  209.1747143.75  207.74
47173.75  209.0447228.75  209.2247433.76  212.8247488.76   209.847563.76  207.47
47633.77  207.4147758.77  205.1247848.58  204.7847963.78  205.3948133.79  202.57
48173.79  203.5748230.17  203.37 48328.8  205.63 48403.8  209.3248514.05     211
48651.41  213.9749198.83  214.3249753.86  212.8449768.86   214.349798.86   212.1
49835.83  212.5850004.33  212.8650573.89  214.3450826.98  214.7750922.57  214.48
#Mann= 7 ,-1 , 0 
       0      .1       0    2591     .04       0 3276.92     .05       0
12621.05      .1       015757.74     .05       038948.67      .1       0
48514.05     .05       0
#XS Ineff= 2 , 0 
                        14565.15       0  201.97
Permanent Ineff=
       F       F
#Block Obstruct= 2 , 0 
       0   60.05  207.6545246.88       0  213.33
Bank Sta=2591,3276.92
XS Rating Curve= 0 ,0
XS HTab Starting El and Incr=159.58,1, 55 
XS HTab Horizontal Distribution= 5 , 5 , 5 
Exp/Cntr=0.3,0.1

Type RM Length L Ch R = 1 ,4.0     ,2804.38,7734.65,3146.91
XS GIS Cut Line=15
      1484602.66       290935.09      1481178.46       291322.18
      1480404.31       293108.69      1480402.86       293109.85
      1480372.86       293133.35      1480355.63       293146.83
      1480292.86         293196.      1480263.41       293219.05
      1480257.86       293223.41       1480217.3       293255.16
      1480142.86       293313.47      1480102.02       293345.44
      1477932.92       295044.13      1472930.64       294686.83
       1433180.1       292900.29
Node Last Edited Time=Jul/08/2018 11:06:48
#Sta/Elev= 445 
       0  196.27   55.15  210.79   75.28  208.04  115.53  192.56  140.69  188.34
  165.85  188.08   221.2  181.99  427.51  181.99  462.73  188.51  523.11  188.83
  623.75  187.73  784.77  188.09  860.25  187.65   915.6  188.31  1011.2  187.79
 1208.71  187.78 1333.24   188.3 1443.94  187.74 1594.49  188.66 1827.09   188.8
 1856.56  188.09 1987.38   188.4 2188.66  186.82 2435.22  188.09 2575.95  187.58
 2757.26  188.02 2847.83  187.72 2993.76  188.67 3245.39  188.66  3270.9   189.7
 3290.64  192.32 3310.77  200.82 3325.86  200.99 3361.08  188.63 3371.15  187.59
 3472.69  187.95 3568.55   189.6  3606.7  191.12 3742.93  190.48 3851.91  191.85
 4026.01  190.89 4151.63  192.68 4238.07  188.62 4244.26   182.7 4282.41  166.54
 4309.65  160.58  4380.5  158.24 4484.03  159.72 4613.11  164.79    4702  169.85
  4734.7  174.38 4761.94   187.3 4789.19   190.2 4909.07  189.54 5028.96  189.79
 5093.92  189.39 5137.94  190.13 5258.39   190.6 5339.57  189.62 5496.53  190.06
  5655.3  188.78 5750.56  187.34 6049.05  189.57 6156.82  188.31 6309.43  189.63
  6455.5  189.13  6506.3  189.71 6708.27   188.8 6753.99  189.36  6868.3  188.86
 6969.91  189.28 7115.98  188.57 7267.82  189.19 7414.47  186.61 7604.99  186.69
 7712.95  187.58 7839.97  187.63 7966.99  186.67 8070.67  187.01 8316.28  190.57
 8449.65  187.87 8529.69  187.36 8779.71   187.9 8883.08   187.1 9149.31  187.32
 9254.02  187.99  9324.2  186.79 9389.37  186.97 9434.48  186.13 9524.71  186.31
 9554.79  187.46 9569.83   184.1 9589.88  189.69 9619.95  186.54 9706.06   188.6
 9815.45  187.28 9925.95  190.11 9965.84  189.8810052.27  187.0710091.15  186.95
10121.23  183.0810131.26  187.7810156.32  189.3510261.59  189.6310276.63  183.68
10291.66  183.2410326.75  188.6310366.86  189.5510427.01  189.2910534.17  187.07
10672.63  186.1910742.81  187.1810873.14  186.71 10899.1  183.4310927.17  183.88
10953.35   186.910998.46  186.5111062.85  188.7911178.92  186.8211374.42  185.57
11605.57  185.7511690.23  190.4511755.28  192.49 11839.5  192.3612031.31  190.65
12045.35  191.3812106.18  190.0812321.39  190.0312487.26  189.5312662.92  190.25
12798.05  189.0212850.07     19012958.45  188.1712978.51  185.6212988.53   189.9
13108.84   189.713199.07   188.213280.49  187.5213472.32  187.9313484.79  186.91
13853.72  186.9113872.88  189.2713896.84  185.7614010.42     185   14236  185.34
14471.61   185.414530.95  186.9114575.99  185.9714661.08  186.0714796.22  185.38
14826.06  187.03 14876.3  185.55 14981.4  187.1715021.44  186.22 15076.5  186.45
15186.61  185.3315251.68  185.6515346.77  185.0815439.15  186.12 15471.9  185.61
15521.95  186.69   15567  185.5215677.11  185.12 15788.8     19315822.32  193.59
15846.28   196.815961.23  199.8316022.46  200.8816302.74  201.3216337.78  201.75
   16563  201.7116694.07  201.17 16758.2  199.68 16853.3  198.5816923.37  198.42
17033.48  200.07 17058.5  201.4417343.79  200.8717408.86  199.7117438.89  200.39
17483.93  198.5317580.18  197.9517639.09  198.2317786.14  195.8717994.45  195.17
   18040  194.5418189.65   195.118260.33  196.4818308.23  198.2918336.97  201.12
18375.29  199.2318480.66  201.4318605.07  199.4818710.18  194.4318765.23  192.49
18855.32  190.5419025.49  191.56 19130.6  191.2819160.63  193.07 19225.7  194.09
19341.14   197.719400.87  199.5719475.95  200.3919654.16  200.3619741.22  199.63
19966.45   196.520113.99   195.320256.74  196.2220386.87  195.4820527.01  195.15
20627.11  196.81 20760.6  199.6320937.43  200.36 21012.5  199.7821153.37  200.18
21237.73  199.8321407.22  200.1821553.05  199.5821862.25   199.121968.47  197.18
22106.53  191.1722223.73  188.3122258.77  186.5422754.27   185.222869.38  185.52
23083.65  185.5123199.72  186.4123797.33  186.2224040.57  185.7624180.71  186.26
24440.97  186.6324576.11  185.6624736.27  186.1724926.46  186.3225096.64  186.07
 25315.7  186.5525507.29  186.13 25952.5  186.22 26152.7  186.4526387.94  186.06
26508.06  186.2526568.12  185.7526613.73  184.3626673.23  185.6726683.24  183.19
26708.27   184.126718.28  187.3726767.01  186.5326893.45  185.94 27238.8  186.47
27454.02  187.4327672.27  187.7428034.61  187.1728149.72  187.5328342.84  187.51
   28425  187.9328665.25  186.9128805.39  186.6728951.14  186.86 29161.9   188.3
29281.64  188.2729421.01  187.1429454.07  187.6329466.06  184.0829482.81   184.5
29506.77  190.8529531.12  187.5429569.03  186.8929822.89  185.8230091.69  185.57
30359.35  185.6530560.51  185.24 31082.6  185.8331192.77  185.4931423.03  185.54
31728.34  186.2432189.05  189.89   32304  189.2232368.99  185.4432589.21  189.57
32691.98  189.1732794.42  188.0532899.53  187.7632989.62  186.6733019.65  187.07
33204.84  187.0133415.23  187.5833535.17  187.4233610.25  187.8433720.36  187.58
33850.49  187.9833890.53  187.0833980.62  188.1334270.91  187.8434666.31  187.91
34706.35  185.9934741.39  187.15 34951.6  186.8135196.85   187.435422.08  186.73
 35737.4  186.2935987.65  186.1536162.83   185.236317.98  186.3136375.32  187.32
36548.22  187.6436796.82  186.2537003.68  186.5937045.89  186.3237278.96  186.88
37359.04  186.27 37419.1  187.8737449.13  186.4137639.32  186.7137699.38  186.24
37994.68  186.51 38027.8   186.238289.98  187.03 38415.1  186.5438535.23  186.78
38680.37  186.54 38805.5   186.838815.51  188.4738832.49  183.7738860.56  186.89
38990.55  185.4439130.83  184.4439311.01   183.9 39574.9  184.5739790.45  184.23
39881.59  184.67 39996.7  184.32 40231.1  185.3740437.06  185.2940457.17   184.5
40562.28  185.1540957.68  185.0641172.89  186.9141227.95  188.4841257.98  184.18
41293.01   186.341343.33  185.6341563.29  185.0141743.47  185.5341768.63  185.18
42113.48  186.6942223.96  186.1242319.45  191.6942439.17  199.3542574.31  200.94
42664.31  203.1142699.44  202.1242749.49  203.9742870.28  204.3442924.66  202.34
42974.71  198.7443074.82   195.343144.89  193.91   43255  190.4843363.63  189.91
43449.83  190.5443585.33  188.9943770.52  189.8143904.86  189.6243962.34  190.16
44015.77  189.4244065.82  184.4244355.11  184.4244383.85  187.2244484.43  193.97
 44541.3  199.3844636.39  199.2344696.45  201.07 44841.6  202.0344916.68  207.69
45016.78  209.4645076.84  207.0645116.88   206.945176.94  203.6545201.96  203.38
45282.05   208.645317.08  209.8345471.13  208.5545542.98   203.145607.37     208
45662.43  206.6945739.36  200.7645777.55  200.5945862.63  196.8845937.71  201.57
46002.77   207.146050.69  207.18 46122.9   209.546187.96   210.646338.08  210.96
46468.24  212.5946668.58  212.4646758.54  209.3146858.64  208.3646973.76  211.41
47023.81  211.2447114.03  212.7747286.46  213.6347344.13  213.2947478.05  214.51
47529.32  213.0747764.55  213.1447929.72  211.4148105.51  211.5448215.68  209.82
48285.08   210.848349.79  207.7448390.19  207.6748470.27  211.08 48605.4   211.9
48765.57  214.5148930.73  213.83 49090.9  214.6349110.92  213.0949211.96  210.17
49301.11   210.649361.17  212.7849401.21  211.0149523.29  210.2549595.13  207.69
49628.67  203.5749696.51  203.9349761.57  201.7249791.51  203.16 49891.7  203.92
   50182  210.8950272.09  213.3250342.34  214.3350527.59  213.8151137.96  213.84
51362.57  212.7351459.92  211.3852058.89  210.7652083.92  212.2552103.94  210.67
52148.99  212.1552804.65  212.3352884.73  213.2753144.99   214.353337.95  214.34
#Mann= 8 ,-1 , 0 
       0      .1       0  3270.9     .05       0 4238.07     .04       0
 4761.94     .05       0   14236      .1       019341.14     .05       0
41343.33      .1       050527.59     .05       0
#XS Ineff= 2 , 0 
                        16458.09       0  201.75
Permanent Ineff=
       F       F
#Block Obstruct= 2 , 0 
       0   56.24  208.3344900.78       0   209.3
Bank Sta=4238.07,4761.94
XS Rating Curve= 0 ,0
XS HTab Starting El and Incr=158.74,1, 56 
XS HTab Horizontal Distribution= 5 , 5 , 5 
Exp/Cntr=0.3,0.1

Type RM Length L Ch R = 1 ,3.0     ,2753.06,3163.52,3280.57
XS GIS Cut Line=8
      1484602.66       290607.56      1481148.69       290845.77
      1477984.08       292268.38      1477942.86       292286.93
      1477903.14       292304.77      1476712.12        292394.1
      1475729.52       292036.79      1436514.98       287719.32
Node Last Edited Time=Jul/08/2018 11:06:48
#Sta/Elev= 445 
       0  204.42   24.86  210.58   44.91   208.2   90.01  191.07  110.06  188.23
  140.13  187.72  195.26  181.99  430.82  181.99  460.89  187.89  521.04  188.65
   546.1  187.52  702.78  187.13  977.32  187.27 1292.87  187.65 1703.84  188.39
 1733.91  187.96 1924.75  188.02 1969.22  187.51 2109.81   187.6 2195.01   186.9
 2380.45  187.25 2455.63  188.16 2495.72  187.49 2641.07  187.24 2806.46  188.01
 3026.98  188.15 3152.11   188.7 3247.51  188.41 3282.59  192.19 3307.65  200.96
 3322.68  199.75 3357.77  188.48  3412.9  187.65 3561.77  187.91 3627.56  190.18
 3742.68  190.09 3792.02  190.67  3857.8  190.13 4011.29  190.05 4164.79  190.95
 4214.13  190.05 4674.62  190.57 4734.92  191.11 4947.12  191.61 4992.57  193.18
 5036.43  190.77 5107.69   192.1 5124.14  190.36 5166.62  191.07 5233.78  190.64
 5305.05   191.4 5392.76  191.53 5508.07  191.41 5532.46  190.92 5776.63  191.04
 5849.52  190.52  6110.9  192.04 6214.82  191.94 6258.91  189.73 6422.67  188.34
  6598.8  187.61 6730.37  188.18 6790.67  187.52 6878.38  187.41 7042.77  189.83
 7161.28  189.73 7331.76  190.58  7416.8  189.73 7482.18  190.29 7537.33  186.75
 7587.47  187.22 7666.14  189.96 7722.85  189.92 7793.05  188.45 7933.44  190.03
 8003.64  188.78 8073.84  189.47 8153.99  188.17 8249.12  187.77 8288.67   188.2
  8320.6  186.72 8358.36   186.7 8395.08  184.44 8444.19  174.58  8480.2  170.55
 8506.81  165.49 8575.97  158.66 8608.52  156.52 8729.02  151.46 8762.18  151.37
 8795.34   153.6 8826.03  157.33 8868.59  175.94 8879.23  187.99 8884.55  184.83
 8932.44  187.65 9017.56  188.59 9064.55   187.7 9084.05  184.46 9108.01  184.02
 9129.29  188.89 9187.81  188.29 9342.68  187.64  9362.8  191.17 9372.86  189.07
 9438.26   188.2 9458.38  189.24 9548.92  189.46 9603.86  195.91 9658.24  198.13
 9709.89  196.71  9753.4   197.8 9785.34  200.33 9853.09  202.77 9871.21   202.4
 9930.12  204.7110026.79  206.4910132.43  204.74 10505.6  205.4710550.91  205.11
10745.76  206.7710796.42  206.5111012.72  206.7511072.01  207.9111324.59  203.45
11475.31  202.4111561.01  201.3811711.92  201.1711817.55  201.5211877.92  202.79
11919.38  202.4512028.13  203.38 12174.7  202.17   12225  202.1312360.82   200.2
   12557  198.9412632.45  196.4412778.33  193.1712880.02  193.0912898.14  191.23
12949.36  190.7312984.57  192.1113044.93  191.87 13090.2   193.313133.78  192.29
13179.09  193.84 13371.9  195.3513396.59  194.5713419.25  188.8413460.03  193.83
13491.75  193.6413523.47  187.8113563.05  189.0413595.97  186.7513643.53  186.68
13683.77  192.8913704.73  187.9413724.01  187.8113779.35  193.59 13854.8  197.23
13981.14  195.9714076.29  197.3714166.67  199.8114271.14  200.5714498.67  200.73
14559.03  201.1314709.94  200.5614796.77  200.7914869.27  198.9114971.51  193.36
15091.31  187.6715159.28  188.0815172.87  187.2515258.97  187.6215383.99  187.47
15490.07  191.8515575.14  196.2215648.67  198.5215721.02  199.8215776.35  199.95
16098.28  199.6616123.43  198.7716188.83  199.7216261.53  199.8616435.31  199.68
 16601.3  195.6416736.19  198.1916807.54  197.6516993.66  194.1617003.72  194.64
17189.84  197.1817335.72   197.817465.73  197.2217588.07  198.7917818.62  199.31
18050.01  199.0718140.55  198.6418598.57  198.7118744.18  199.1918849.82  198.08
18859.88  199.0518955.45  199.3719201.23  197.87 19312.6  197.5119443.39  198.05
19644.59  197.0219820.65  196.5319921.72  195.0919971.53  195.9520189.07  194.01
20248.22  192.2720293.49  193.1520384.04  192.6820547.04  189.4420750.95  186.84
 20927.3  185.5421254.27  184.92 21475.6  186.2721702.53  186.8621968.56  188.88
22049.05  190.0522228.16  190.5322325.71   191.4 22607.4  196.2322738.19  199.59
22843.82  200.4722959.52  198.0123065.15     19323100.36  193.4423120.48  192.05
 23302.1  187.4523402.18  185.3223546.79  183.4323719.08   183.123941.02  183.08
24008.99  184.19 24027.1  182.9824153.99  182.7824181.87  184.5724262.35  184.07
 24453.5  184.3524543.68  184.7724584.28  182.7324664.77  184.1124694.95  183.04
24951.49  183.2325005.88  183.06 25318.7   183.325404.63  183.5725711.06  183.49
25887.11   183.925982.69  183.82 26020.9  184.8426034.49  183.0926070.75  182.77
26088.87     18526125.11  185.5426147.77  183.15 26165.9  183.6526292.78  184.28
26395.17  184.2226470.62  184.6826550.65  184.23   26832  184.6626936.23  185.72
26968.61  186.5627114.49  188.7927189.94  188.8127566.08  186.8827869.68  186.73
28200.47   185.828417.32  185.8128452.53  183.3428462.59  186.0828599.23  185.58
28671.73  185.9928890.16  186.3529020.65  187.0129232.22  186.7729408.28  187.22
29433.43   186.129453.55  188.1829493.79  188.2229534.03  186.1429559.18  189.38
29569.24  187.5529765.42  187.9629805.66  185.4529906.27  186.02 29940.5  185.11
30037.05  186.9830312.08  187.7630439.47  188.6930545.11   188.330624.74  188.67
30741.29  187.7130912.32  187.0331128.62  186.9431485.69  188.2331732.24  186.42
31782.55   185.7 31958.6  185.7231973.69   186.332114.54   187.932230.24  186.67
32301.33  186.7132461.63  187.7732617.56  188.0232808.84  187.7132971.97  186.29
33021.81  185.5533085.38   187.933157.75  189.0233311.74  188.4133432.46  188.49
33565.57   188.133665.26   187.233760.42   187.134026.03  186.0634154.65  186.67
34373.12  185.6834559.23  185.4634856.02  186.0334891.23  187.0734976.74  187.07
35127.65  187.6735218.19  186.2435263.47  183.85 35318.8  184.1235359.04  185.28
35414.36  183.7935595.46  185.45 35635.7  184.0635665.89  186.1835726.25  187.55
35939.99  186.6536033.09  184.4636075.94  184.3936189.03  185.8536249.39   185.6
36420.42   186.136601.51  185.5136626.66  185.0836893.26  184.2337154.39  184.04
37326.59  184.22 37366.1  185.5637381.19  182.9237421.44  184.6337471.74  183.83
37934.52  183.8538060.28  184.1638119.57  183.8738352.03  184.2238477.79  183.82
38835.53  183.73 38995.9  183.91 39046.2  184.5339081.41   183.939121.66  185.19
 39161.9  183.7339297.71  183.9739333.97  185.0339358.08  184.2439506.16  183.85
39533.35  184.93 39594.5  184.05 39628.5  184.7839700.13  184.0939710.07  185.09
39765.53  184.1239775.59  185.0639918.51  184.1839946.61  184.7540022.07  184.07
40072.37  184.8340082.43  183.5740136.01  184.8940152.85  183.5340283.89  183.67
40348.99  185.3840362.58  184.3640530.12  184.02 40856.5  184.1940892.75  184.72
40947.63  184.09 41160.1  184.4841264.53  183.9941345.02  184.7141586.47  183.98
41721.98  184.4841866.98  184.2341898.34   184.941939.49  184.1241980.27  184.56
42079.95  183.8242185.07  184.2542255.49  185.5542325.91  185.7342356.37  187.44
42471.79  198.4942512.03  200.8342577.43  208.1842623.72  210.4242782.32  209.89
42803.79  212.0242818.88   208.4 42849.3  210.1943045.24  208.8343375.92  208.24
43643.83  207.32 43661.4  207.7743915.47  208.9144076.44  210.3244257.52   212.4
44332.03  212.7344712.67  213.3744780.33  212.5344866.18  212.8444976.85  211.92
45115.95  211.9745248.48  210.7745333.99  211.2545359.14  210.3845489.93  210.26
45505.02  209.2145555.32  209.5845630.78  208.6645796.77  208.4845831.91  207.09
45927.56  207.3445947.68  206.1846085.66  208.4946304.83  209.6446448.17  209.71
   46667  210.6146687.13     21047173.19  209.6347318.19   209.4 47698.2  209.83
47795.76  209.6848075.47  209.8148170.08  210.5748550.71  211.6648712.18  211.85
#Mann= 7 ,-1 , 0 
       0      .1       0 1969.22     .05       0 8395.08     .04       0
 8884.55      .1       016261.53     .05       040283.89      .1       0
 42849.3     .05       0
#XS Ineff= 2 , 0 
                        10998.54       0  206.45
Permanent Ineff=
       F       F
#Block Obstruct= 2 , 0 
       0   12.69  203.7842608.86       0  210.17
Bank Sta=8395.08,8884.55
XS Rating Curve= 0 ,0
XS HTab Starting El and Incr=151.87,1, 61 
XS HTab Horizontal Distribution= 5 , 5 , 5 
Exp/Cntr=0.3,0.1

Type RM Length L Ch R = 1 ,2.0     ,4481.35,4317.03,3952.88
XS GIS Cut Line=4
      1484662.22       290220.48      1478230.67       289773.84
      1477009.87        288969.9      1439492.54       284592.88
Node Last Edited Time=Jul/08/2018 11:06:48
#Sta/Elev= 445 
       0  197.21   49.48  209.64   69.53  207.66  114.64  190.24  159.56  187.77
  219.89  181.99  435.41  181.99  460.47  187.36   515.6   187.9  571.99  187.32
  701.05  187.33  736.13  186.84  867.24  187.04 1091.99  186.86 1543.07  186.88
 1621.78  188.44 1635.85  187.17 1793.68   186.7 1863.84  187.82 1903.94     187
 2015.46  187.26 2132.62  186.81 2249.77  187.61 2455.27   187.1 2760.62   187.3
 2896.33  187.85 3026.64   187.7 3136.91  188.08 3299.59  187.77 3397.53  188.44
 3512.81  187.58 3562.93  188.36    3593  187.67  3641.7  189.44  3679.2  189.68
 3953.87  189.22 4009.01  190.01 4074.16  189.09 4364.86  189.25 4780.55  189.09
 5026.45  189.44 5177.19  190.51 5216.91  190.19 5236.96  187.88 5282.07  187.94
 5307.13  193.05 5322.16  190.42 5452.48  189.29 5547.71  190.56 5642.94  190.78
 5808.33  191.85 5873.49  191.83 5928.62  186.11 5988.77  185.93  6022.5  186.65
 6073.97  189.52 6124.09  190.65  6209.3  190.81 6264.43  189.67 6317.75  187.32
 6355.25  187.21 6444.87  189.94 6513.52  191.24 6582.14  188.03 6621.81  187.94
 6672.94  189.77 6766.19  187.92 6795.06  190.08 6823.94  188.39 6881.48  189.32
 6921.41  187.54 6943.07  189.28 6964.73  184.95 6971.95  179.37 6995.23  174.41
 7019.18  172.84 7040.52  161.72  7065.8  159.72 7116.33  158.41 7182.04   158.1
 7343.74  160.09 7415.93  162.39 7452.03  165.03  7462.2  181.67 7473.69  191.15
 7546.01  192.36 7628.91  190.71 7707.66  190.31  7827.4  188.77 7863.32  190.47
 7905.22  198.92    7936  202.55 7986.34  205.63 8092.05  204.53 8142.39  203.56
 8227.97  203.73 8244.48  202.84 8338.71  201.78 8384.02  201.99  8499.8  200.18
 8570.27  200.11 8609.62   201.5 8636.67  200.47 8675.99  202.64 8736.39  203.49
  8767.4  203.07 8862.24   204.6 9001.82   205.5 9088.77  205.29 9118.97  206.24
 9154.21  205.04 9290.13  203.59 9355.57  201.09 9441.15  199.07 9551.89  200.09
 9607.26  200.04 9617.33  198.94 9652.57  199.89 9712.98  197.08 9799.73  194.68
 9880.88  191.33 9934.47  193.5710070.39  195.4110110.79  197.1210155.96  197.16
10182.91   198.410218.98  202.7510261.68  203.4410306.98  201.1210363.23  202.93
10412.82  201.51 10473.1  200.92 10570.6  203.5610654.32   203.110687.81  204.07
10765.07  203.9410855.68  202.0910886.17   203.410895.95  201.2210958.29  201.39
11048.45  205.6711102.34  204.6311182.88   205.211215.24  204.6811238.26  201.55
 11288.6  198.0711379.21  190.1511454.17   187.511602.94  186.0511656.07  186.88
11711.12  185.8911868.91  186.4811937.97  186.3511993.35  186.9812058.79  186.16
12099.06  187.6512280.28   187.412411.16  186.3312639.77  186.2912662.86  186.02
12874.28  186.2812944.76  185.7513070.61  186.4813095.78  185.8113151.15  186.25
13387.75  185.97 13528.7  186.8413563.91  185.9513663.09  186.4914011.95  186.03
14077.39  186.3514288.82  185.8614359.29   186.314470.02  185.8714641.19  186.49
14690.91   185.814897.92  186.3914923.09  185.7915013.71  185.6815109.35  186.36
15141.71  185.8115189.89  186.52 15220.1  185.7715270.44  186.7615320.77  185.79
15484.32  186.08 15562.4  185.7215668.12  186.5815718.74   185.815872.01  185.76
16035.59  186.04 16065.8  185.6616257.09  185.7616679.94  186.6816972.39  188.05
17007.14  188.9817163.19  189.1117228.92   190.117349.45  193.8717427.26  195.63
17470.26  195.9417490.38  195.0117581.01  197.7417639.14  198.6117901.72  199.53
17927.66  199.3318198.13  199.7818658.27  199.4418693.51  200.1918728.74  199.58
18839.49  199.7219027.61  199.5219282.48  199.3419478.41  199.8319675.12  199.47
19901.65   199.520118.11  199.2320158.38   198.820248.99  199.7520666.81  199.04