Plan Title=14320639_ind
Short Identifier=14320639_ind
Geom File=g01
Flow File=f01
Run RASMapper= 0 