Geom Title=Imported GIS Data +Bridges
Program Version=5.00
Viewing Rectangle= 6386768.01 , 6458579.99 , 2074843.01 , 2027243.01 

Junct Name=2               
Junct Desc=, 0 , 0 ,-1 ,0
Junct X Y & Text X Y=6421540.5,2051194.25,6421540.5,2051194.25
Up River,Reach=Baxter River    ,Upper Reach     
Up River,Reach=Tule Creek      ,Tributary       
Dn River,Reach=Baxter River    ,Lower Reach     
Junc L&A=514.47,0
Junc L&A=1595.1,0

River Reach=Baxter River    ,Upper Reach     
Reach XY= 2589 
      6453739.99      2051684.78      6453734.97      2051687.27
      6453661.42      2051724.08      6453623.26      2051743.14
       6453548.1      2051780.71      6453480.97       2051814.3
      6453391.47      2051859.06      6453368.73      2051870.41
      6453329.89      2051841.27       6453285.4      2051807.91
       6453247.6      2051779.53      6453192.03      2051737.86
      6453121.92      2051685.27      6453062.73      2051640.91
      6453050.52      2051631.73      6453027.56      2051587.73
      6453000.16      2051535.24      6452977.36      2051491.54
      6452959.88      2051457.97      6452919.52      2051380.64
      6452895.77      2051335.14       6452891.4      2051326.77
      6452882.48      2051273.06      6452868.27      2051187.89
      6452853.58       2051099.7      6452851.64      2051088.12
       6452839.5      2051015.22      6452831.33      2050966.31
      6452818.04      2050886.45      6452811.84      2050849.48
      6452801.51      2050810.63      6452786.94      2050756.04
      6452770.96      2050696.16      6452758.83      2050650.56
        6452756.      2050646.33      6452733.83      2050613.09
      6452718.64      2050590.29      6452694.06      2050553.41
      6452657.68      2050498.82      6452652.76      2050491.47
      6452636.48      2050481.43       6452603.9      2050461.38
      6452570.11      2050440.62      6452517.78       2050408.4
      6452484.81      2050388.12      6452480.38       2050385.4
      6452452.82      2050378.77      6452393.83      2050364.63
      6452364.63      2050357.61      6452333.14      2050350.07
      6452244.29      2050328.74       6452208.5      2050320.14
      6452152.56      2050306.73      6452148.92      2050305.84
      6452141.31      2050305.84      6452110.96      2050305.84
      6452101.74      2050305.84      6452084.55      2050305.84
      6451910.24      2050305.84       6451879.4      2050314.07
      6451871.06      2050316.31      6451849.51      2050322.05
      6451726.94      2050354.72      6451711.35      2050358.89
        6451698.      2050367.78      6451681.59      2050378.71
      6451631.82      2050411.91      6451601.25       2050433.3
      6451571.42       2050454.2      6451499.21      2050504.72
      6451481.86      2050516.77      6451469.65       2050525.2
      6451454.76       2050535.5      6451371.19      2050593.37
      6451349.97      2050608.04      6451326.84      2050624.05
      6451288.48       2050662.4      6451268.04      2050682.87
      6451217.26      2050733.66      6451175.07      2050775.82
      6451154.49      2050796.42       6451139.9      2050804.63
      6451103.94      2050824.84      6451035.56      2050863.32
      6450998.36      2050884.25      6450951.35       2050910.7
      6450942.36      2050915.75      6450877.76      2050935.63
      6450824.08      2050952.13      6450769.98       2050968.8
        6450746.       2050966.8      6450705.35      2050963.42
      6450634.25      2050957.48      6450610.86      2050955.54
      6450570.44      2050927.23      6450522.54       2050893.7
      6450478.28      2050862.73      6450477.85      2050862.11
      6450450.49      2050821.03      6450446.59      2050815.19
      6450440.12      2050805.48      6450438.75      2050803.41
      6450432.51      2050794.06      6450427.26      2050786.19
      6450425.23      2050783.17       6450424.8      2050782.45
      6450421.56       2050777.4      6450401.61        2050746.
      6450397.18      2050739.07      6450383.96      2050718.31
      6450377.03      2050707.38       6450364.5      2050687.73
      6450332.41       2050637.3      6450331.17       2050633.6
      6450326.21      2050618.73      6450291.27      2050513.88
      6450282.58      2050487.83       6450279.4      2050478.22
      6450277.92      2050453.08      6450274.93       2050402.4
      6450272.38      2050358.83      6450270.18      2050321.42
      6450267.36      2050273.33      6450266.14      2050252.79
      6450271.52      2050220.41      6450281.36      2050161.32
      6450290.09      2050108.99      6450292.78      2050092.85
      6450295.34      2050077.56      6450305.91      2050014.14
      6450322.05      2049928.02      6450325.79      2049908.17
      6450329.89      2049886.25      6450337.11       2049847.7
      6450345.67        2049802.      6450357.28      2049697.57
      6450360.37      2049669.95      6450366.99      2049610.07
      6450372.21      2049563.32      6450370.54       2049560.5
      6450363.88      2049549.08      6450357.51      2049538.16
      6450353.05      2049530.51      6450344.75      2049516.31
      6450337.27      2049503.48      6450322.34      2049477.85
      6450312.53      2049461.02      6450292.26      2049426.28
       6450279.4      2049404.23      6450270.47      2049391.73
      6450265.68      2049385.01      6450253.58      2049368.04
      6450242.55      2049352.66       6450224.8      2049327.79
      6450213.09      2049311.42      6450203.77      2049305.35
      6450188.29      2049295.28       6450164.6      2049279.89
      6450145.28      2049267.36      6450123.92      2049253.44
      6450116.99      2049248.95      6450100.26      2049238.09
      6450082.09      2049226.25      6450059.88      2049211.81
      6450042.26      2049200.36      6450022.44       2049187.5
      6450005.25      2049176.31      6449986.84      2049164.34
      6449969.26      2049152.92       6449964.4      2049149.77
       6449947.9      2049139.04      6449946.42      2049138.06
      6449927.36      2049125.33      6449913.94       2049116.4
      6449901.21      2049107.91      6449887.11      2049098.49
      6449861.09      2049081.17      6449846.65      2049071.56
      6449830.22      2049060.56      6449809.51      2049046.78
      6449788.81      2049032.97      6449782.71      2049029.69
      6449762.86        2049019.      6449747.97      2049010.96
      6449719.88      2048995.87      6449706.23      2048988.52
      6449662.43      2048964.93      6449644.42      2048955.22
       6449627.3        2048946.      6449616.44      2048940.16
      6449582.12       2048937.7      6449561.09      2048936.22
      6449543.21      2048934.94      6449505.97      2048932.28
       6449472.6      2048929.89      6449431.66      2048926.97
      6449430.81       2048926.9      6449415.26      2048933.14
      6449382.25      2048946.33      6449354.63      2048957.38
      6449332.68      2048966.14      6449298.23      2048979.95
      6449284.71       2048995.7      6449270.14       2049012.7
      6449261.25      2049023.06      6449240.42      2049047.38
      6449218.67      2049072.74      6449209.51      2049075.03
      6449201.71        2049077.      6449192.26      2049079.36
      6449153.58      2049089.01      6449133.46      2049094.06
       6449112.6      2049099.28      6449096.39      2049095.21
      6449090.22      2049093.67      6449081.07      2049091.37
        6449077.      2049090.35       6449068.7      2049088.29
      6449060.33      2049086.19      6449054.72      2049084.81
      6449047.08      2049082.87      6449039.44      2049080.97
      6449030.18      2049078.67      6449020.57      2049076.25
      6449008.17      2049073.16      6449006.53      2049072.74
      6448996.49      2049062.73       6448985.7      2049051.94
      6448980.87      2049047.11      6448973.52      2049039.73
      6448970.21      2049036.42      6448963.75      2049029.99
      6448941.34      2049007.55      6448899.05      2048965.26
       6448887.2      2048953.41      6448876.35      2048943.77
      6448830.64      2048903.15      6448805.58      2048880.87
      6448767.85      2048847.34      6448765.91      2048846.29
       6448752.2      2048838.81       6448733.1      2048828.38
      6448708.46      2048814.96      6448685.83      2048802.59
       6448670.6      2048794.32      6448631.56        2048773.
      6448622.01      2048767.78      6448607.48       2048762.5
      6448581.17      2048752.95      6448565.85      2048747.38
      6448551.97      2048742.32      6448525.92      2048732.84
      6448498.52       2048722.9      6448476.15      2048714.76
       6448474.7      2048714.76      6448428.38      2048714.76
      6448398.06      2048714.76      6448370.96      2048714.76
      6448347.67      2048714.76      6448322.01      2048714.76
      6448317.06      2048714.76      6448290.49      2048725.39
      6448260.89       2048737.2      6448246.36      2048743.04
      6448227.43      2048750.62      6448198.92      2048762.01
      6448184.45      2048767.78      6448170.67      2048776.67
      6448148.36      2048791.01       6448120.6      2048808.83
      6448107.87      2048817.03      6448082.32      2048833.46
      6448055.77      2048850.52      6448029.72      2048867.26
      6448006.17      2048882.41      6447998.85      2048887.11
      6447977.43      2048905.84      6447946.62      2048932.84
      6447934.78      2048943.18      6447919.65      2048956.43
      6447908.92      2048965.81      6447894.91      2048978.08
      6447892.78      2048979.95      6447876.74      2049001.97
      6447852.43       2049035.4      6447842.91      2049048.49
      6447827.95      2049069.06        6447806.      2049099.25
      6447786.68      2049125.79      6447786.68      2049125.89
      6447780.22      2049151.64      6447775.72      2049169.69
      6447761.38      2049227.03      6447760.17      2049231.86
      6447755.48      2049316.31       6447751.9      2049380.94
       6447749.7      2049420.14       6447747.9      2049452.56
      6447746.92      2049470.51      6447746.26      2049479.72
       6447743.5      2049518.04      6447740.94      2049553.94
      6447738.22      2049592.22       6447735.1      2049636.09
      6447733.66      2049656.14      6447732.32      2049668.31
      6447726.71      2049718.83      6447720.41      2049775.49
      6447717.75       2049787.4      6447709.28      2049825.49
       6447699.7      2049868.57      6447694.03      2049894.13
      6447693.86      2049894.82      6447655.35      2049914.07
      6447642.42      2049920.54       6447587.8      2049947.83
      6447578.15      2049949.61      6447528.51      2049958.63
      6447515.32      2049961.02      6447474.15       2049968.5
      6447441.96      2049974.34      6447432.32      2049975.07
      6447413.85      2049976.38      6447400.79       2049977.3
      6447363.88      2049979.95      6447320.73      2049983.01
      6447306.46      2049984.06      6447256.33      2049987.63
       6447224.7      2049987.63      6447224.31      2049987.63
        6447223.      2049987.63      6447211.35      2049987.63
      6447200.49      2049987.63       6447197.7      2049987.63
      6447177.72      2049987.63        6447177.      2049987.63
      6447174.64      2049987.63      6447160.76      2049987.63
      6447157.38      2049987.63      6447148.16      2049987.63
      6447136.81      2049987.63      6447123.75      2049987.63
      6447110.17      2049983.76      6447073.88      2049973.36
      6447057.09      2049968.57       6447039.9      2049963.68
      6447027.17      2049960.04      6446988.48      2049948.98
      6446964.07      2049941.99      6446934.74      2049933.63
      6446916.31      2049928.35      6446894.29      2049922.08
      6446852.85      2049910.24      6446830.12      2049903.74
      6446807.97      2049897.41      6446772.64       2049887.3
      6446752.49      2049881.56      6446743.04      2049877.89
       6446700.1      2049861.15      6446683.66      2049854.79
      6446641.21      2049838.25      6446602.95      2049823.39
      6446594.39      2049820.08      6446562.93      2049807.84
      6446527.13       2049793.9      6446513.85      2049788.75
      6446486.78       2049775.2      6446439.86      2049751.74
      6446415.65      2049739.63      6446388.71      2049726.18
      6446369.26      2049716.44      6446344.55       2049704.1
       6446320.7      2049692.19      6446296.19      2049679.92
      6446275.36      2049669.49      6446248.65      2049656.14
      6446245.24      2049654.79      6446223.33      2049646.03
      6446190.75      2049632.97      6446165.22      2049622.77
      6446149.25       2049616.4      6446114.44      2049602.46
      6446109.22      2049600.36      6446103.25        2049598.
      6446096.59      2049595.31      6446087.93      2049591.86
       6446083.2      2049589.96      6446072.87      2049585.83
       6446070.9      2049585.04      6446064.34      2049582.41
      6446059.25      2049580.38      6446049.77      2049576.57
      6446046.49      2049575.43       6446039.6      2049572.97
      6446019.59      2049565.81      6446011.61      2049562.99
      6445988.09      2049554.56      6445961.94      2049545.24
      6445956.76      2049543.37      6445947.34      2049540.03
      6445940.09      2049537.43      6445936.12      2049536.02
      6445925.39      2049532.19      6445913.68      2049527.99
       6445910.6       2049526.9      6445904.72       2049524.8
      6445903.15      2049524.25      6445895.93      2049521.65
      6445890.85      2049519.85      6445864.14       2049510.3
      6445846.13      2049506.69      6445824.38      2049502.36
      6445805.84      2049498.65      6445774.34      2049492.36
       6445756.4      2049488.75      6445737.27      2049484.91
      6445712.76      2049480.02       6445693.6      2049476.18
      6445669.91      2049471.46      6445665.26      2049470.51
      6445627.36      2049459.71      6445604.72      2049453.22
      6445580.05      2049446.19      6445557.84      2049439.83
      6445545.51      2049436.32       6445524.7      2049430.35
      6445509.02      2049425.89        6445479.      2049417.29
      6445466.14      2049413.62      6445420.41      2049400.56
      6445386.81      2049390.98      6445377.43      2049387.07
      6445341.21      2049371.98      6445292.59      2049351.71
      6445256.96      2049336.84      6445227.69      2049324.67
      6445203.67      2049307.51       6445183.2      2049292.91
      6445158.99      2049275.59      6445136.84      2049259.74
      6445134.88      2049258.37      6445091.83      2049244.91
      6445061.02       2049235.3      6445025.89      2049224.31
      6444975.98      2049208.73       6444931.5      2049194.82
      6444922.74      2049192.09      6444910.76       2049189.3
      6444863.22      2049178.35      6444833.96      2049171.59
      6444811.32      2049166.37      6444758.69      2049154.23
      6444750.39       2049152.3        6444729.      2049135.66
      6444725.13      2049132.68      6444713.55      2049123.65
      6444697.38      2049111.06      6444692.91      2049107.61
      6444688.09      2049103.84       6444681.1      2049098.43
      6444677.62       2049095.7      6444669.29      2049089.24
      6444667.16      2049087.57      6444657.51      2049080.09
      6444656.69      2049079.43       6444650.3      2049074.48
       6444645.7       2049070.9      6444645.34       2049070.6
      6444631.04      2049059.48       6444610.1      2049038.55
      6444605.81      2049034.25      6444600.89      2049029.33
      6444564.76      2048993.21      6444536.12      2048974.11
      6444526.21      2048967.49      6444524.34      2048966.27
      6444521.19      2048964.14      6444465.32       2048926.9
      6444461.75      2048919.06      6444444.62      2048881.36
      6444427.76      2048844.26      6444409.91      2048804.99
      6444399.02      2048781.04      6444397.31      2048758.04
      6444395.54      2048734.02      6444392.95      2048699.21
      6444384.65      2048587.07      6444381.27       2048541.4
      6444380.15      2048526.44      6444377.49      2048490.32
      6444372.57      2048423.95      6444372.47      2048423.06
      6444366.27      2048354.56      6444363.55      2048324.57
      6444359.55      2048280.64      6444359.25       2048277.2
      6444340.78      2048256.89      6444330.18      2048245.24
      6444312.99      2048226.35      6444278.44      2048188.35
      6444257.32      2048165.09      6444231.69      2048136.91
      6444226.64      2048131.36      6444216.08      2048126.08
      6444184.65      2048110.37      6444151.41      2048093.73
      6444142.68      2048089.37      6444126.48      2048081.27
      6444120.57      2048078.31       6444097.6      2048072.05
      6444085.86      2048068.86      6444039.47       2048056.2
      6444020.28      2048050.98      6443992.22      2048043.31
      6443935.79      2048027.92      6443927.53      2048025.66
      6443892.85      2048016.21      6443853.31      2048005.45
      6443840.12      2048001.84      6443828.87      2047998.79
      6443795.05      2047996.98      6443756.14      2047994.95
      6443723.69      2047993.24       6443678.9      2047990.88
      6443624.05      2047987.99      6443576.94       2047985.5
      6443574.21      2047985.79      6443561.42      2047987.07
      6443553.38      2047987.86      6443510.56      2047992.16
      6443489.07      2047994.29      6443441.31      2047999.08
      6443389.44      2048004.27      6443311.78      2048012.04
      6443290.39      2048016.11      6443283.43      2048017.42
      6443273.03      2048019.42       6443243.7        2048025.
      6443243.67        2048025.      6443161.78      2048040.58
      6443157.74      2048041.37       6443089.3       2048054.4
       6443081.1      2048055.97      6443073.26      2048057.45
      6443033.33      2048065.06      6443018.96      2048065.06
      6443004.56      2048065.06      6442987.73      2048065.06
      6442974.61      2048065.06      6442958.92      2048065.06
      6442914.27      2048065.06       6442910.1      2048065.06
      6442866.21      2048065.06      6442853.61      2048065.06
      6442821.19      2048065.06      6442804.76      2048065.06
      6442791.73      2048065.06      6442777.89      2048065.06
      6442755.09      2048065.06      6442747.47      2048065.06
      6442662.96      2048065.06      6442662.07      2048065.06
      6442632.09      2048065.06      6442631.04      2048065.06
      6442630.25      2048065.06      6442627.99      2048065.06
      6442624.41      2048065.06      6442608.23      2048065.06
      6442599.31      2048065.06      6442586.45      2048065.06
      6442581.46      2048065.06      6442572.97      2048065.06
        6442506.      2048065.06      6442502.99      2048065.06
      6442464.83      2048052.36      6442429.95      2048040.72
      6442423.46      2048038.55      6442392.32      2048028.18
      6442365.16      2048019.13      6442343.86      2048012.04
      6442317.09      2048008.69      6442273.88      2048003.28
       6442237.8      2047998.79      6442230.09      2047994.65
      6442191.31      2047973.98      6442113.62      2047932.55
      6442082.58      2047915.98      6442038.91      2047892.68
      6442012.96       2047887.5       6441972.6      2047879.43
      6441964.86      2047874.93      6441930.87      2047855.09
        6441879.      2047824.84      6441834.94      2047799.11
      6441813.48      2047786.61       6441779.4      2047755.91
      6441740.49       2047720.9      6441712.47       2047695.7
      6441686.38      2047672.24      6441680.91      2047667.29
      6441656.66      2047633.37      6441638.22      2047607.51
      6441614.63      2047574.48      6441613.75      2047572.87
      6441592.78      2047533.56      6441575.69      2047501.51
      6441557.28      2047466.96      6441545.14      2047444.19
      6441533.23      2047421.92      6441508.53      2047375.59
      6441505.48      2047355.25      6441500.36        2047321.
      6441494.29      2047280.54      6441490.16      2047253.08
       6441483.4      2047207.87      6441479.79      2047183.83
      6441475.69      2047156.46      6441468.77       2047110.4
      6441468.11      2047102.76      6441466.08      2047079.43
      6441460.99      2047020.87      6441459.19       2047000.2
      6441455.38       2046956.3      6441453.44      2046934.42
      6441449.74       2046891.5      6441447.74       2046868.6
      6441443.21      2046816.54      6441442.26      2046805.45
      6441437.83      2046790.49      6441428.28      2046757.94
      6441417.06      2046719.82      6441408.76      2046691.57
      6441382.58      2046602.62      6441377.26      2046584.48
      6441375.95      2046580.05      6441367.26      2046572.05
      6441309.45      2046518.64      6441301.44      2046511.29
      6441278.02      2046489.67      6441266.93       2046479.4
      6441244.85      2046459.06      6441230.18      2046445.51
      6441203.58      2046420.93      6441193.57      2046419.03
      6441168.11      2046414.21      6441138.02      2046408.46
      6441113.12      2046403.71      6441082.64       2046397.9
      6441060.43      2046393.67      6441046.29      2046390.98
       6441022.9      2046386.52      6440993.57      2046380.94
      6440967.78      2046376.02      6440939.83       2046370.7
      6440925.16      2046367.91      6440909.68      2046367.29
      6440884.51      2046366.27      6440850.62      2046364.93
      6440832.58      2046364.21      6440815.58      2046363.52
      6440776.21      2046361.94      6440755.77      2046361.12
      6440719.42      2046359.68      6440697.05      2046358.79
      6440646.92      2046356.79      6440611.81      2046355.38
      6440593.67      2046354.66      6440588.16      2046355.28
      6440552.23      2046359.42      6440526.71      2046362.37
      6440486.42      2046367.03      6440449.44      2046371.29
        6440425.      2046374.11      6440387.34      2046378.44
      6440363.52       2046381.2      6440322.77      2046385.93
      6440294.23      2046389.21      6440260.79      2046393.04
      6440248.95      2046394.42       6440231.1      2046395.67
      6440209.91      2046397.15      6440177.46      2046399.41
      6440140.22        2046402.      6440120.37      2046403.41
       6440089.3      2046405.54      6440068.54      2046407.02
      6440045.96       2046408.6      6440021.29       2046410.3
      6440003.35      2046411.55      6439956.96       2046414.8
      6439939.53      2046416.01      6439921.23      2046417.29
       6439876.8      2046420.37      6439847.41      2046422.44
      6439803.54      2046425.49       6439737.7      2046430.09
       6439731.2      2046430.54      6439722.87      2046431.14
       6439712.5      2046431.86      6439704.76      2046432.38
      6439691.24      2046433.33      6439678.81      2046434.19
      6439678.31      2046434.15      6439672.97      2046433.53
      6439611.81      2046426.48       6439570.7      2046421.72
      6439531.59      2046417.22      6439491.47       2046412.6
      6439471.49      2046410.27      6439424.34      2046404.86
      6439367.06      2046398.23      6439347.18      2046395.93
      6439334.06      2046394.42      6439327.49      2046394.06
      6439261.71      2046390.52      6439242.95       2046389.5
       6439226.8      2046388.62       6439210.1      2046387.73
      6439177.07      2046385.93      6439154.63      2046384.74
      6439109.28      2046382.28      6439088.78      2046381.17
      6439085.07      2046382.12      6439066.17      2046387.04
      6439047.93      2046391.77      6438999.64      2046404.27
      6438982.91       2046408.6      6438964.01      2046413.52
      6438927.72      2046422.93      6438911.12      2046427.23
      6438876.05      2046436.32      6438851.12      2046442.78
      6438827.79      2046448.82      6438801.41      2046455.68
      6438781.27      2046460.89      6438762.24      2046465.81
      6438730.77      2046473.98      6438728.15      2046474.84
      6438713.32      2046479.79      6438681.92      2046490.26
      6438649.15      2046501.18      6438626.94       2046508.6
      6438597.01      2046518.57       6438573.1      2046526.54
      6438571.69      2046527.03      6438546.23      2046536.91
      6438498.52      2046555.45      6438479.04      2046563.02
      6438460.89      2046570.11      6438395.64      2046595.47
      6438366.08      2046606.96      6438352.85      2046612.11
      6438333.01      2046619.82      6438304.27      2046637.07
      6438279.04      2046652.23       6438260.6      2046663.29
      6438215.35      2046690.42      6438200.43      2046699.38
      6438192.85      2046705.71       6438185.4      2046711.91
      6438165.22      2046728.71      6438138.42      2046751.05
      6438120.87      2046765.68      6438117.13      2046768.86
      6438094.49      2046788.29      6438073.69      2046806.14
      6438050.16      2046826.28      6438030.64      2046843.01
      6438028.05      2046845.24      6438016.86      2046859.22
      6437997.51      2046883.43      6437982.19      2046902.56
       6437975.2      2046911.29        6437975.      2046911.52
       6437962.2      2046929.49      6437937.57      2046963.98
       6437927.2      2046978.44      6437918.96      2046990.03
      6437910.53       2047001.8      6437908.73      2047004.33
      6437874.77       2047018.9      6437846.39      2047031.07
      6437827.92      2047038.98      6437810.01      2047046.65
      6437788.62      2047055.81      6437756.46      2047069.59
       6437739.8      2047076.74      6437728.58      2047081.56
       6437723.1      2047083.89      6437720.08      2047083.89
      6437684.71      2047083.89      6437651.35      2047083.89
      6437634.32      2047083.89      6437620.47      2047083.89
      6437617.03      2047083.89      6437593.04      2047086.19
      6437558.92      2047089.44      6437530.81      2047092.13
      6437521.88      2047092.95      6437479.69      2047096.98
      6437440.65      2047100.69      6437400.39      2047104.53
      6437365.88      2047107.81      6437343.83      2047109.91
      6437338.58       2047110.4      6437306.89       2047110.4
      6437261.52       2047110.4      6437220.37       2047110.4
      6437206.86       2047110.4      6437166.21       2047110.4
      6437162.93      2047109.06      6437151.61      2047104.33
      6437122.97      2047092.39      6437085.27      2047076.71
      6437067.32      2047069.23      6437062.73      2047067.29
      6437031.36      2047054.23      6437007.12      2047044.13
      6436999.25      2047040.19      6436980.45      2047030.77
      6436970.41      2047025.79      6436952.03       2047016.6
      6436931.59      2047006.36       6436912.5      2046996.82
      6436894.23      2046987.66      6436883.53      2046982.35
      6436874.51      2046977.82      6436865.88      2046973.52
      6436824.21      2046952.66      6436811.75      2046946.42
      6436794.95      2046938.06      6436780.77      2046930.15
      6436736.88      2046905.77      6436720.41      2046896.62
      6436711.75      2046891.83      6436703.61       2046887.3
      6436675.62      2046871.75      6436668.44      2046862.57
      6436658.14      2046849.51      6436625.52      2046807.97
      6436619.16      2046799.87      6436611.15       2046789.7
      6436588.39      2046760.73      6436561.52      2046726.51
      6436543.41      2046703.48      6436529.79      2046686.12
      6436518.34      2046670.11      6436504.43      2046650.62
      6436476.48      2046611.48      6436463.48      2046593.31
      6436459.45      2046585.24      6436442.13      2046550.62
      6436436.29      2046538.94      6436410.53      2046487.43
      6436410.47      2046487.24      6436402.07      2046477.79
      6436360.56       2046431.1      6436356.69      2046426.77
      6436351.25      2046420.64      6436341.24      2046409.38
      6436339.76      2046407.74      6436333.23      2046400.36
      6436322.87      2046388.71      6436314.24        2046379.
       6436304.4      2046367.91      6436302.33      2046365.85
      6436288.91      2046352.43      6436283.83      2046347.34
       6436264.6      2046328.12      6436255.94      2046321.39
      6436253.12      2046319.19      6436252.23       2046318.5
      6436251.44      2046317.91      6436246.65      2046314.17
      6436233.46      2046303.94      6436232.12      2046302.85
      6436230.18      2046301.35       6436214.6      2046289.24
      6436214.44      2046289.14      6436214.14      2046288.88
      6436213.52      2046288.39      6436187.83      2046268.41
      6436186.15      2046267.13      6436177.85      2046260.66
      6436170.21      2046254.72      6436165.03      2046250.66
      6436161.52      2046247.97      6436153.87      2046241.99
      6436149.54      2046238.65      6436145.31      2046235.33
      6436145.28      2046235.33      6436142.26      2046233.83