Flow Title=14320639_ind
Number of Profiles= 50
BEGIN FILE DESCRIPTION:
{"0": "53874", "1": "69241", "2": "84608", "3": "99975", "4": "115342", "5": "130710", "6": "146077", "7": "161444", "8": "176811", "9": "192179", "10": "207546", "11": "222913", "12": "238280", "13": "253647", "14": "269015", "15": "284382", "16": "299749", "17": "315116", "18": "330484", "19": "345851", "20": "361218", "21": "376585", "22": "391952", "23": "407320", "24": "422687", "25": "438054", "26": "453421", "27": "468789", "28": "484156", "29": "499523", "30": "514890", "31": "530257", "32": "545625", "33": "560992", "34": "576359", "35": "591726", "36": "607094", "37": "622461", "38": "637828", "39": "653195", "40": "668562", "41": "683930", "42": "699297", "43": "714664", "44": "730031", "45": "745399", "46": "760766", "47": "776133", "48": "791500", "49": "806868"}
END FILE DESCRIPTION:
Profile Names=0,1,2,3,4,5,6,7,8,9,10,11,12,13,14,15,16,17,18,19,20,21,22,23,24,25,26,27,28,29,30,31,32,33,34,35,36,37,38,39,40,41,42,43,44,45,46,47,48,49
River Rch & RM=14320639,14320639        ,5.0     
   53874   69241   84608   99975  115342  130710  146077  161444  176811  192179
  207546  222913  238280  253647  269015  284382  299749  315116  330484  345851
  361218  376585  391952  407320  422687  438054  453421  468789  484156  499523
  514890  530257  545625  560992  576359  591726  607094  622461  637828  653195
  668562  683930  699297  714664  730031  745399  760766  776133  791500  806868
Boundary for River Rch & Prof#=14320639,14320639        , 1
Up Type= 0 
Dn Type= 3 
Dn Slope=0.001
Boundary for River Rch & Prof#=14320639,14320639        , 2
Up Type= 0 
Dn Type= 3 
Dn Slope=0.001
Boundary for River Rch & Prof#=14320639,14320639        , 3
Up Type= 0 
Dn Type= 3 
Dn Slope=0.001
Boundary for River Rch & Prof#=14320639,14320639        , 4
Up Type= 0 
Dn Type= 3 
Dn Slope=0.001
Boundary for River Rch & Prof#=14320639,14320639        , 5
Up Type= 0 
Dn Type= 3 
Dn Slope=0.001
Boundary for River Rch & Prof#=14320639,14320639        , 6
Up Type= 0 
Dn Type= 3 
Dn Slope=0.001
Boundary for River Rch & Prof#=14320639,14320639        , 7
Up Type= 0 
Dn Type= 3 
Dn Slope=0.001
Boundary for River Rch & Prof#=14320639,14320639        , 8
Up Type= 0 
Dn Type= 3 
Dn Slope=0.001
Boundary for River Rch & Prof#=14320639,14320639        , 9
Up Type= 0 
Dn Type= 3 
Dn Slope=0.001
Boundary for River Rch & Prof#=14320639,14320639        , 10
Up Type= 0 
Dn Type= 3 
Dn Slope=0.001
Boundary for River Rch & Prof#=14320639,14320639        , 11
Up Type= 0 
Dn Type= 3 
Dn Slope=0.001
Boundary for River Rch & Prof#=14320639,14320639        , 12
Up Type= 0 
Dn Type= 3 
Dn Slope=0.001
Boundary for River Rch & Prof#=14320639,14320639        , 13
Up Type= 0 
Dn Type= 3 
Dn Slope=0.001
Boundary for River Rch & Prof#=14320639,14320639        , 14
Up Type= 0 
Dn Type= 3 
Dn Slope=0.001
Boundary for River Rch & Prof#=14320639,14320639        , 15
Up Type= 0 
Dn Type= 3 
Dn Slope=0.001
Boundary for River Rch & Prof#=14320639,14320639        , 16
Up Type= 0 
Dn Type= 3 
Dn Slope=0.001
Boundary for River Rch & Prof#=14320639,14320639        , 17
Up Type= 0 
Dn Type= 3 
Dn Slope=0.001
Boundary for River Rch & Prof#=14320639,14320639        , 18
Up Type= 0 
Dn Type= 3 
Dn Slope=0.001
Boundary for River Rch & Prof#=14320639,14320639        , 19
Up Type= 0 
Dn Type= 3 
Dn Slope=0.001
Boundary for River Rch & Prof#=14320639,14320639        , 20
Up Type= 0 
Dn Type= 3 
Dn Slope=0.001
Boundary for River Rch & Prof#=14320639,14320639        , 21
Up Type= 0 
Dn Type= 3 
Dn Slope=0.001
Boundary for River Rch & Prof#=14320639,14320639        , 22
Up Type= 0 
Dn Type= 3 
Dn Slope=0.001
Boundary for River Rch & Prof#=14320639,14320639        , 23
Up Type= 0 
Dn Type= 3 
Dn Slope=0.001
Boundary for River Rch & Prof#=14320639,14320639        , 24
Up Type= 0 
Dn Type= 3 
Dn Slope=0.001
Boundary for River Rch & Prof#=14320639,14320639        , 25
Up Type= 0 
Dn Type= 3 
Dn Slope=0.001
Boundary for River Rch & Prof#=14320639,14320639        , 26
Up Type= 0 
Dn Type= 3 
Dn Slope=0.001
Boundary for River Rch & Prof#=14320639,14320639        , 27
Up Type= 0 
Dn Type= 3 
Dn Slope=0.001
Boundary for River Rch & Prof#=14320639,14320639        , 28
Up Type= 0 
Dn Type= 3 
Dn Slope=0.001
Boundary for River Rch & Prof#=14320639,14320639        , 29
Up Type= 0 
Dn Type= 3 
Dn Slope=0.001
Boundary for River Rch & Prof#=14320639,14320639        , 30
Up Type= 0 
Dn Type= 3 
Dn Slope=0.001
Boundary for River Rch & Prof#=14320639,14320639        , 31
Up Type= 0 
Dn Type= 3 
Dn Slope=0.001
Boundary for River Rch & Prof#=14320639,14320639        , 32
Up Type= 0 
Dn Type= 3 
Dn Slope=0.001
Boundary for River Rch & Prof#=14320639,14320639        , 33
Up Type= 0 
Dn Type= 3 
Dn Slope=0.001
Boundary for River Rch & Prof#=14320639,14320639        , 34
Up Type= 0 
Dn Type= 3 
Dn Slope=0.001
Boundary for River Rch & Prof#=14320639,14320639        , 35
Up Type= 0 
Dn Type= 3 
Dn Slope=0.001
Boundary for River Rch & Prof#=14320639,14320639        , 36
Up Type= 0 
Dn Type= 3 
Dn Slope=0.001
Boundary for River Rch & Prof#=14320639,14320639        , 37
Up Type= 0 
Dn Type= 3 
Dn Slope=0.001
Boundary for River Rch & Prof#=14320639,14320639        , 38
Up Type= 0 
Dn Type= 3 
Dn Slope=0.001
Boundary for River Rch & Prof#=14320639,14320639        , 39
Up Type= 0 
Dn Type= 3 
Dn Slope=0.001
Boundary for River Rch & Prof#=14320639,14320639        , 40
Up Type= 0 
Dn Type= 3 
Dn Slope=0.001
Boundary for River Rch & Prof#=14320639,14320639        , 41
Up Type= 0 
Dn Type= 3 
Dn Slope=0.001
Boundary for River Rch & Prof#=14320639,14320639        , 42
Up Type= 0 
Dn Type= 3 
Dn Slope=0.001
Boundary for River Rch & Prof#=14320639,14320639        , 43
Up Type= 0 
Dn Type= 3 
Dn Slope=0.001
Boundary for River Rch & Prof#=14320639,14320639        , 44
Up Type= 0 
Dn Type= 3 
Dn Slope=0.001
Boundary for River Rch & Prof#=14320639,14320639        , 45
Up Type= 0 
Dn Type= 3 
Dn Slope=0.001
Boundary for River Rch & Prof#=14320639,14320639        , 46
Up Type= 0 
Dn Type= 3 
Dn Slope=0.001
Boundary for River Rch & Prof#=14320639,14320639        , 47
Up Type= 0 
Dn Type= 3 
Dn Slope=0.001
Boundary for River Rch & Prof#=14320639,14320639        , 48
Up Type= 0 
Dn Type= 3 
Dn Slope=0.001
Boundary for River Rch & Prof#=14320639,14320639        , 49
Up Type= 0 
Dn Type= 3 
Dn Slope=0.001
Boundary for River Rch & Prof#=14320639,14320639        , 50
Up Type= 0 
Dn Type= 3 
Dn Slope=0.001