Flow Title=14320639_nd
Number of Profiles= 21
BEGIN FILE DESCRIPTION:
{"0": "53874", "1": "57296", "2": "64281", "3": "72026", "4": "81630", "5": "94247", "6": "110048", "7": "130490", "8": "154989", "9": "182650", "10": "216458", "11": "268245", "12": "310889", "13": "356991", "14": "406807", "15": "509255", "16": "570724", "17": "637058", "18": "713894", "19": "789961", "20": "806868"}
END FILE DESCRIPTION:
Profile Names=0,1,2,3,4,5,6,7,8,9,10,11,12,13,14,15,16,17,18,19,20
River Rch & RM=14320639,14320639        ,5.0     
   53874   57296   64281   72026   81630   94247  110048  130490  154989  182650
  216458  268245  310889  356991  406807  509255  570724  637058  713894  789961
  806868
Boundary for River Rch & Prof#=14320639,14320639        , 1
Up Type= 0 
Dn Type= 3 
Dn Slope=0.001
Boundary for River Rch & Prof#=14320639,14320639        , 2
Up Type= 0 
Dn Type= 3 
Dn Slope=0.001
Boundary for River Rch & Prof#=14320639,14320639        , 3
Up Type= 0 
Dn Type= 3 
Dn Slope=0.001
Boundary for River Rch & Prof#=14320639,14320639        , 4
Up Type= 0 
Dn Type= 3 
Dn Slope=0.001
Boundary for River Rch & Prof#=14320639,14320639        , 5
Up Type= 0 
Dn Type= 3 
Dn Slope=0.001
Boundary for River Rch & Prof#=14320639,14320639        , 6
Up Type= 0 
Dn Type= 3 
Dn Slope=0.001
Boundary for River Rch & Prof#=14320639,14320639        , 7
Up Type= 0 
Dn Type= 3 
Dn Slope=0.001
Boundary for River Rch & Prof#=14320639,14320639        , 8
Up Type= 0 
Dn Type= 3 
Dn Slope=0.001
Boundary for River Rch & Prof#=14320639,14320639        , 9
Up Type= 0 
Dn Type= 3 
Dn Slope=0.001
Boundary for River Rch & Prof#=14320639,14320639        , 10
Up Type= 0 
Dn Type= 3 
Dn Slope=0.001
Boundary for River Rch & Prof#=14320639,14320639        , 11
Up Type= 0 
Dn Type= 3 
Dn Slope=0.001
Boundary for River Rch & Prof#=14320639,14320639        , 12
Up Type= 0 
Dn Type= 3 
Dn Slope=0.001
Boundary for River Rch & Prof#=14320639,14320639        , 13
Up Type= 0 
Dn Type= 3 
Dn Slope=0.001
Boundary for River Rch & Prof#=14320639,14320639        , 14
Up Type= 0 
Dn Type= 3 
Dn Slope=0.001
Boundary for River Rch & Prof#=14320639,14320639        , 15
Up Type= 0 
Dn Type= 3 
Dn Slope=0.001
Boundary for River Rch & Prof#=14320639,14320639        , 16
Up Type= 0 
Dn Type= 3 
Dn Slope=0.001
Boundary for River Rch & Prof#=14320639,14320639        , 17
Up Type= 0 
Dn Type= 3 
Dn Slope=0.001
Boundary for River Rch & Prof#=14320639,14320639        , 18
Up Type= 0 
Dn Type= 3 
Dn Slope=0.001
Boundary for River Rch & Prof#=14320639,14320639        , 19
Up Type= 0 
Dn Type= 3 
Dn Slope=0.001
Boundary for River Rch & Prof#=14320639,14320639        , 20
Up Type= 0 
Dn Type= 3 
Dn Slope=0.001
Boundary for River Rch & Prof#=14320639,14320639        , 21
Up Type= 0 
Dn Type= 3 
Dn Slope=0.001