Flow Title=1985 FIS Flows
Program Version=4.00
Number of Profiles= 4 
Profile Names=10yr,50yr,100yr,500yr
River Rch & RM=Patuxent River,1               ,216363.5
    8277   15174   26258   41717
River Rch & RM=Patuxent River,1               ,209431.5
    8324   15174   26267   41717
River Rch & RM=Patuxent River,1               ,200115.4
    8893   15174   26361   41717
River Rch & RM=Patuxent River,1               ,177708.1
    8893   17000   26361   45000
River Rch & RM=Patuxent River,1               ,127390.9
   19000   35000   45000   70000
River Rch & RM=Patuxent River,1               ,66861.67
   24500   43000   52500   77000
Boundary for River Rch & Prof#=Patuxent River,1               , 1 
Up Type= 0 
Dn Type= 3 
Dn Slope=0.0014
Boundary for River Rch & Prof#=Patuxent River,1               , 2 
Up Type= 0 
Dn Type= 3 
Dn Slope=0.0014
Boundary for River Rch & Prof#=Patuxent River,1               , 3 
Up Type= 0 
Dn Type= 3 
Dn Slope=0.0014
Boundary for River Rch & Prof#=Patuxent River,1               , 4 
Up Type= 0 
Dn Type= 3 
Dn Slope=0.0014
DSS Import StartDate=
DSS Import StartTime=
DSS Import EndDate=
DSS Import EndTime=
DSS Import GetInterval= 0 
DSS Import Interval=
DSS Import GetPeak= 0 
DSS Import FillOption= 0 
