Geom Title=Patuxent River
Program Version=4.00
Viewing Rectangle= 1343686.21449301 , 1409353.42113939 , 534907.000862431 , 392652.852676069 

River Reach=Patuxent River  ,1               
Reach XY= 4789 
 1344330.0106366  533512.3523508 1344573.9342476  533488.0467953
  1344672.892581  533468.9495731 1344730.1842476  533450.7204064
 1344770.9828587  533429.8870731 1344795.3588136  533413.4541456
 1344812.3368615  533393.4552911 1344831.2256623  533366.9810411
 1344837.3657086  533353.7015493 1344853.3890323  533307.6046104
 1344864.1706557  533261.2171166 1344867.7995487  533232.7861305
 1344861.0362364  532833.9328698 1344860.8458689  532682.0216499
 1344866.3512698  532511.6262569 1344871.9614823  532463.7763072
 1344909.6035735   532224.842858 1344946.5695598  532056.3282871
 1344983.7865205   531898.567153 1344989.2524287  531879.5461404
   1344998.26323  531856.8259923 1345063.9105373    531708.91812
  1345079.823491  531678.8189969 1345227.7202511  531499.8877506
 1345291.8384655  531431.6457259 1345350.5526035  531362.9739168
  1345394.288001  531305.7012858 1345520.6475533    531130.19496
 1345634.9414767  531002.3373555 1345694.8756532  530932.0850828
 1345765.8813715  530858.8647027 1345907.6368701  530742.8736524
 1345978.6117348   530671.931318 1346113.1149797  530531.8925837
  1346232.981517  530384.0565089 1346348.3005656  530231.2559576
 1346483.8440402  530086.2801334 1346612.2143081   529964.395487
 1346636.2572843   529939.687207 1346763.4162337  529794.5764553
 1346945.9824442  529566.1061523 1347025.9644912  529448.8823735
 1347087.7397181  529367.1246529 1347188.7538343  529213.4727779
 1347329.2310732  528964.3244088 1347370.8195121  528883.8264182
 1347455.9363902  528743.9293399 1347488.5699588  528696.4284054
 1347540.4802141  528631.1839858 1347589.0932417  528564.8279561
 1347665.5151304  528448.8865831 1347682.2148284  528418.9403482
 1347792.8741857  528201.4169632 1347821.5132283  528150.8916701
 1347840.4513151  528125.3894616   1347906.96006  528043.5641814
 1347927.7902318  528025.3823561 1347971.2635104  527997.5900033
 1347994.4512541  527974.5944291 1348013.4200846  527949.0667338
 1348028.0455032   527924.032563 1348063.8744567  527869.4796041
 1348069.5826739   527858.243073 1348076.9489677   527833.587531
  1348100.077534  527797.6965903 1348118.2632042  527776.6782074
 1348188.0783357  527706.4507605 1348236.9566265  527650.8023221
 1348246.5955754  527635.7766793 1348254.4491495  527619.8116874
 1348276.9315677  527567.2221197 1348296.5016153  527511.3521949
 1348305.4029468  527492.6842255 1348323.3463742   527466.723835
 1348369.1219957  527414.2471985 1348399.9990789  527373.1679225
 1348431.5934569  527347.4179751 1348471.6831942   527308.201006
 1348486.2207045  527296.8094773 1348496.5574861  527291.7855474
 1348511.3033528  527287.4461405 1348552.4841299  527286.1005168
 1348574.2285561  527282.2235044 1348589.0486814  527277.3478586
 1348598.8135327  527269.4247493 1348612.7227418  527248.7488979
 1348638.2856127  527232.2082168 1348653.3225955  527229.2008202
 1348687.1558069  527226.7573105 1348736.9658126  527228.6369334
 1348767.9795898  527227.8850842 1348775.4980812  527225.2536122
 1348816.3740332  527202.7226608 1348838.8224469  527194.1700181
 1348861.2656688  527190.2236446 1348914.6812711  527188.2794614
 1348943.8660047  527178.9380654 1348958.4751859  527171.9625053
 1348969.6235844   527164.489671 1348996.5894599  527138.2786143
 1349006.7726335  527123.4544227 1349011.6897373  527112.3394453
 1349018.4162022  527078.8064359 1349019.3323264   527055.128427
 1349015.2392573  527014.9043331 1349016.7415166   526990.566267
  1349021.009866  526977.8442239 1349048.9634517  526924.4795886
 1349059.7751931  526894.9804922 1349063.9419454  526874.8364437
  1349066.783602  526831.2515638 1349073.5416355  526797.8171267
 1349078.4779671  526786.7796096 1349085.7744561  526775.7036545
 1349116.7449066  526740.6817073 1349162.4486783    526673.64185
 1349176.7683522  526657.2732092 1349201.1214605  526642.9493395
 1349237.0839414  526631.6534715 1349256.0180672  526622.1402146
 1349327.6575694  526575.5552091 1349406.0949953  526511.6572757
  1349431.405636  526497.7902761 1349446.3351659  526491.5661768
 1349465.1411741  526486.2695864 1349517.3623467  526476.7461066
 1349585.0788031  526455.4154336 1349637.4601543  526442.3447772
 1349787.7541815  526377.9637648  1349836.240873  526361.3114033
 1349855.2569007  526356.6505953 1349914.7697982  526348.5844093
 1349993.6131087  526332.8323225 1350020.0415376  526325.1310652
 1350053.5752061  526313.4415259 1350087.8266401   526298.182139
 1350135.8432363  526280.4251964 1350231.4218512  526236.5956913
 1350366.2593491  526191.3089315 1350388.9390218  526186.1604306
  1350474.838714  526178.7494063  1350538.363815  526167.4236185
 1350552.8209638  526160.6561642 1350567.3991204  526149.9657194
 1350606.4933448  526112.1938976  1350631.107925  526100.9469029
 1350669.9670838  526090.2613523 1350700.1295148  526085.9069754
 1350736.0687009   526083.767146 1350755.0066143   526079.842223
  1350799.115847  526067.2880407 1350841.6342148  526047.7654059
 1350871.1241512    526040.64983 1350921.8386887  526024.1823874
 1350956.2484394  526015.9053288 1350982.3248946  526007.1462421
 1351019.0468772  525988.4872212 1351052.3563312  525964.8741152
 1351142.5793418  525895.1292699 1351177.5184786  525870.3331568
 1351208.5428954  525841.8558942 1351222.9561978  525830.6682492
  1351248.649477  525818.4916124 1351290.1773639  525806.4294989
 1351350.0468359  525800.2217345  1351425.006541   525797.765986
 1351464.9614028  525800.3920227 1351528.5809853  525807.3488687
 1351614.4352375  525832.2306217 1351652.1099109  525848.1295671
 1351665.7750299  525857.7167042 1351679.8175258  525875.0075136
 1351707.2644105  525919.2014634 1351718.6850084   525933.096612
 1351728.8235572  525942.2394855 1351745.1750002   525950.285503
 1351776.0080362  525959.0320924 1351791.0853112  525961.6866437
 1351806.1477748  525960.4870327 1351845.1385162  525951.3005489
 1351914.8347631  525943.8038245 1351948.4587724  525937.5603054
 1351967.4953602  525929.9977436 1352031.4061713  525896.3616597
 1352057.5548395  525887.9706586 1352079.9298834   525885.427296
 1352121.3170587  525889.1843002 1352164.8406857  525890.9433059
 1352235.1295562    525899.01766 1352256.0809941  525898.9037071
 1352295.0278869  525895.2332889 1352359.9702744  525895.1224301
 1352445.1489258  525904.1309019 1352473.7521812    525905.12199
 1352534.8567145  525904.1653292 1352640.0924499  525890.5055419
 1352735.0613059  525890.1539927  1352753.627406  525892.4744759
 1352784.8267891  525902.2753498 1352856.0689955  525919.2004754
 1352942.4938474  525947.6667856 1352965.2607713  525953.4335858
 1352989.8424691   525954.273279 1353051.1280566   525949.225115
 1353088.4454525  525942.5784585 1353163.3759201  525911.7395103
 1353219.0243687  525878.3997108 1353237.5770365  525865.0614588
 1353269.5208208  525839.4155817 1353286.5939605  525823.2863361
 1353343.6594254  525756.8212698 1353363.2245729  525736.5132204
 1353377.3469638  525724.4704711 1353391.4791082  525716.6449835
 1353522.4890335  525672.3277928 1353541.4361295  525667.1715679
 1353555.1015724  525665.3072261 1353584.9543377  525664.8334192
 1353604.7148052  525666.4507872 1353732.6217265  525697.1299433
 1353755.0754587  525699.9541051 1353774.9072642  525699.7127302
 1353792.3920288  525697.0560428 1353848.7996822  525678.9456211
 1353874.3490494  525668.6726432 1353924.2755098  525640.1536241
 1354013.9173997   525614.447218 1354043.4501893   525607.442068
 1354058.2790959  525601.4291274 1354101.2994075  525572.1876874
 1354155.6988582  525545.4448396   1354212.95997  525510.9448561
 1354252.9188984  525481.1940757  1354340.619577  525400.7230054
 1354366.5063907  525383.0774282 1354430.5032032  525351.0375395
 1354482.7454775  525327.9942765 1354583.8109853  525293.9681974
 1354630.2123817  525285.4555902 1354655.0126742  525284.6732351
 1354676.7362568  525286.6128501 1354687.5633877  525290.2981021
 1354714.3533416  525304.8160563 1354729.3352134  525310.2022893
 1354776.3701185  525322.8388182 1354851.2199768  525339.1357307
 1354899.0952934  525352.8380382 1354941.5962699  525372.4637315
 1354978.8503431  525379.2629113 1355029.9902332  525380.2687649
 1355064.7823149  525378.7384152 1355128.6619275  525367.9656446
  1355170.091865  525355.2347662 1355198.7365503  525342.9625856
 1355221.2493258  525326.8997086  1355257.488228  525305.6486118
 1355296.9187249  525293.4613663 1355308.1565702  525286.3562182
 1355333.0636096  525266.4621516 1355414.9594509  525184.9293407
 1355451.0737418  525142.9461733 1355460.4797805  525128.0146053
 1355471.4746412  525095.5922215  1355484.547505  525069.2221162
 1355508.5565255  525036.8141793 1355528.7433482  525017.8977806
 1355563.6989848  524996.9097259  1355608.498636  524959.1711186
 1355619.2417357  524956.4784251 1355654.9537461  524963.8294014
 1355694.9042792  524965.0800548 1355724.8665036  524964.4296516
 1355765.0617993   524960.425023 1355829.9040097  524959.4099742
 1355939.8844736  524949.2262029 1356019.1905512  524937.2403883
 1356042.9423781  524928.9229887   1356075.77815  524920.0280301
 1356135.8713604  524895.5075395 1356184.3664935  524873.7071333
 1356215.5475344  524856.1146454 1356279.0868321  524824.3977493
 1356320.7696505  524807.5163167 1356353.7328871  524798.5764828
 1356387.2394572  524787.0085624 1356473.3684381  524746.6906654
 1356539.1131363  524708.4990392 1356626.7558783  524648.3998964
  1356744.720742  524584.2250259 1356774.4277028    524564.31964
 1356794.8995854  524544.9786123 1356822.1103099   524513.722116
 1356861.1407798  524472.9043622 1356900.3209491  524417.7603288
 1356915.1141439  524400.0861429 1356968.4910978  524346.8547909
 1357017.6923793  524305.1980437 1357044.1213772  524289.5524115
 1357099.1830305  524268.4257448 1357136.6354294  524246.8704303
 1357228.6477596  524213.5049924 1357247.3573942  524204.6512331
 1357288.0774001  524176.3951253 1357329.9883616  524139.9554882
 1357359.2629205  524109.4074184  1357428.186113  524018.7815738
 1357437.6301567  523997.5329434  1357443.556485  523974.8566929
 1357446.0691056  523920.1888537 1357456.5068774  523825.1965057
 1357466.1251942  523785.2338685 1357481.3832875  523746.3762587
 1357483.9550078  523727.2857536 1357480.1678566  523709.2250165
 1357471.3858491  523695.0191156 1357457.9795155  523683.8349868
 1357431.4888982  523668.8379497 1357424.3362248  523657.7376323
  1357423.111375  523647.3697105 1357425.2001998  523580.1603511
 1357429.1637217  523539.8831829  1357430.482588  523500.0645652
 1357435.0766356   523474.981045 1357447.8166184  523437.7070756
 1357494.6646968  523344.3469448  1357535.585274  523285.4980772
 1357603.7630114  523202.0178763  1357680.154812  523125.1883173
 1357762.7810543  523051.0353283 1357785.8880772  523022.9311855
 1357840.4451763  522925.8597125 1357861.9689821  522877.2405582
 1357884.5589839  522814.1456675 1357946.0201076  522675.4941421
  1357959.144701  522648.9267498 1357984.8040159  522607.3612245
 1358006.8045542  522578.4140791 1358050.6202224  522535.8178561
 1358094.1683025  522509.3485853 1358124.0858804  522494.4624958
 1358195.1080267  522465.2259329 1358217.5933779  522458.1751452
  1358262.518005  522447.4274483 1358341.1464865  522420.6604536
 1358355.7883722  522411.8322442 1358365.6037514  522402.5776767
 1358380.5226407  522377.8681278 1358388.6874435  522358.8513532
 1358394.0881292   522336.228482 1358395.9613769  522270.1671074
 1358401.2839748  522220.2093685 1358406.3408229  522190.2178011
 1358424.2248946  522118.8270572 1358446.8708174  522047.3973503
  1358459.685039  521989.9403536 1358464.9187428  521949.9481398
 1358464.2531375  521893.8786701 1358456.1516525  521848.6540991
 1358444.1561619  521810.9420101  1358435.006998  521789.5197586
  1358420.914301   521773.202665 1358389.5135519  521756.1536335
 1358373.0975611  521741.0846002 1358346.6215546  521691.7318939
 1358321.5725781  521654.0188843 1358307.7504905  521628.5614354
 1358298.5441183  521606.2810602 1358292.0607298  521583.6375286
 1358289.9396908  521564.9956701 1358289.7824238  521540.0622961
 1358291.1386011  521520.2455371 1358296.1646863  521490.2084097
 1358308.1806385   521437.612101 1358323.6414473  521384.7796422
  1358333.714644  521339.7914247 1358343.6663532  521279.7835787
 1358345.0850472  521250.0137983 1358345.1613051  521100.0205614
 1358352.0443582  521046.3293185  1358363.517499  521008.6622922
 1358375.2585366  520982.6099065 1358393.1899078  520956.5547013
 1358423.2448959   520921.563482 1358444.4729846  520904.9912283
 1358507.7409488  520877.9773893 1358546.3266902  520866.7369557
 1358580.2519542  520860.9778455 1358604.9068226  520860.0902131
 1358624.1394337  520862.6639107 1358669.9952543  520880.0058307
 1358700.2551015  520888.4561697 1358744.9112683   520889.900893
 1358816.0813827  520883.9939456 1358894.7490918   520873.392828
 1358921.3056731  520866.4005369 1358984.8907442  520844.8510663
 1359006.6924412  520833.2078147 1359049.4790878  520799.3904325
 1359066.0362046  520782.7896291 1359090.9663793  520750.8109548
 1359107.9733256  520735.7410545 1359197.3226084  520689.6040457
 1359260.7968175  520646.9819914 1359276.9289838  520630.7574871
 1359315.6142223  520580.4196683 1359332.4111307  520564.4965346
 1359342.8778175  520558.0657745 1359380.3779281  520540.6704345
 1359410.1444453   520531.037705 1359439.9761244  520527.4186829
 1359477.5007969  520530.0484621 1359510.0110374  520535.1710798
 1359529.3322836  520541.3839362 1359547.9735787  520553.6226698
 1359617.3693643  520615.5478189 1359673.3673027  520658.2289148
 1359691.6782576  520667.5763929 1359725.1751589  520674.2175631
 1359750.0917774   520675.415853 1359773.8947029  520673.7085538
 1359803.4792592  520666.1357549  1359818.221331   520656.452421
 1359833.3976288  520639.2266782  1359841.531019  520621.5714284
 1359847.9812807  520598.8693346 1359854.7355632  520519.9675159
 1359855.0707614   520384.939358 1359856.4053689  520370.0959128
 1359859.8490816  520354.7419456 1359871.0418409  520320.7970097
 1359880.4744882  520302.4467949 1359892.4841808  520289.4329276
 1359899.4466999   520285.113006 1359910.1135288  520281.4421593
 1359924.6156045  520280.0253553 1359943.2558204   520281.831404
 1359981.3548048  520292.4049852 1360108.7970253  520321.2574442
 1360149.4151865  520336.1840506 1360190.5986468  520359.8741679
  1360216.809908  520376.9013202  1360231.488103  520383.9132607
 1360261.5311682   520393.121201 1360272.6787499    520394.10915
 1360283.7764375  520393.0739016 1360298.5977093  520388.7232253
 1360308.9683899  520383.6226994  1360329.703849  520365.2259236
  1360339.975026   520350.765977 1360353.4985471  520321.8496528
 1360369.9947223  520295.0246792 1360394.9262093  520262.4277185
 1360410.6137739  520245.6276943 1360448.9889213  520212.2008933
 1360471.3811361  520196.0015412 1360492.9350485  520187.6685933
 1360509.2851036  520187.2090378 1360520.5317138  520192.8753449
 1360530.7110667  520206.1713822 1360560.0228048   520299.977638
 1360568.3797275  520318.2561202 1360578.7671858  520332.9491986
 1360621.0943721  520377.1349745 1360675.5270132  520445.0161367
 1360695.2450277  520464.8097323  1360706.505562  520471.8655931
 1360715.4802621  520474.3487351 1360734.6795626  520475.1058889
 1360748.9366962  520472.6807472 1360764.9144416  520465.3825016
 1360834.3417952  520424.6737528 1360919.6703299  520379.0676326
 1360945.6679501  520360.6943259 1360958.5729633  520348.6886211
 1360966.1633779  520338.0536464 1360971.1517307   520327.104673
 1360977.9140491  520301.7760667 1360982.2544366  520291.1266378
 1361003.5751167  520261.9521388 1361021.1847832  520247.1200585
 1361060.2365038  520229.6616938 1361073.6529291  520220.4446073
 1361133.5847856  520161.8179544 1361151.3503943  520140.6738728
 1361157.3471481   520129.150348 1361166.7311174  520100.7479248
  1361214.870342  519990.7519432   1361217.97411  519979.5728419
  1361222.165164  519946.4470529 1361226.9571402  519925.9021744
 1361245.3535536  519890.7297826 1361252.7611322  519868.5789655
  1361254.752203  519853.7348678 1361254.9476072  519835.1263499
 1361245.5136357  519764.9022149  1361244.659409  519719.9659281
 1361245.8199194  519690.1228507 1361249.0384581  519673.7853605
 1361256.4284463  519651.3960209 1361287.6643068  519579.2420226
 1361294.2747783  519549.8497546 1361298.7821458  519514.9696115
 1361297.5571284  519497.5080093 1361288.8556759  519445.1853246
 1361273.3811224  519381.3830062 1361260.0269888  519355.0101667
 1361222.6713962  519303.5439395 1361210.9883032  519284.3716299
 1361187.5650351  519232.1599515 1361184.6928323  519221.2834114
 1361184.3517813  519210.6581282 1361186.7291457  519202.9954578
 1361193.5685963  519192.1099336 1361239.5810974  519144.7865265
 1361247.9889951  519133.7671626  1361254.773208  519119.8796893
 1361262.0371704  519097.5481004 1361270.4764202  519060.1241342
 1361291.8397708  518992.3960429 1361312.5168796  518897.9304931
 1361328.5696553   518784.767422 1361341.3446647  518665.2182076
 1361350.4124801  518610.0669344 1361355.2391339  518590.0388004
 1361376.8139112  518522.3884482 1361392.8991167  518458.6070347
  1361399.182697  518421.0951962 1361399.9094186  518365.0378705
 1361394.2181351  518308.7383688 1361389.0715224  518285.9081758
 1361378.6234688  518256.2099556 1361367.4035495  518239.2767606
 1361353.3523663  518229.2696886  1361294.330978  518210.2204908
 1361259.2809214  518191.4881436 1361230.4859461  518178.9858151
 1361200.9870947  518163.3910032 1361154.0433142  518127.1477982
 1361116.4355858  518091.9033979 1361098.1782073  518078.4969633
 1361079.8428975  518070.2286474 1361031.2336985  518053.3869611
 1361020.9329101  518048.1178151 1361010.3195199  518039.5506389
 1360999.8155116  518025.7052402 1360991.8118623  518003.9389352
 1360978.6807253  517910.1977049 1360959.4488928  517827.7297272
 1360955.0969949  517816.9923153 1360947.7976248  517805.7214931
 1360939.5406795   517795.411604 1360929.4401133  517786.0828473
 1360914.3849286  517777.5411409 1360881.7390897  517767.7416803
 1360847.2986855  517752.8189993 1360821.1967094  517744.1368029
 1360799.9618837  517740.7880141 1360765.0604501  517741.7541689
  1360753.712682  517740.4427699 1360712.5519179  517732.0767062
 1360671.0852668  517719.0819183 1360648.9450585  517710.6860003
  1360633.632586  517702.4748919  1360615.252167  517689.5305874
 1360598.2015063  517673.2839882 1360584.0646934  517655.6070046
 1360574.9582245  517640.5600873 1360570.7109692   517624.893309
 1360570.1826702  517610.2387906  1360572.686166  517592.7559642
 1360579.5129126  517570.0274854 1360596.6476928  517521.4574741
 1360614.9959823  517479.8835459 1360623.6976274  517449.6969631
 1360625.5699243  517424.8771486 1360624.6086358  517394.9314881
  1360619.865607  517375.0484468 1360610.6071896  517357.5217096
 1360601.2690989  517347.6581768 1360579.9692238  517330.2276748
 1360553.5485879  517313.1414698 1360531.2844873  517303.7604094
 1360471.2405606  517283.5897157 1360449.2547279  517271.7904238
 1360430.0103924  517252.6261369 1360403.0635829  517213.3523301
  1360380.060114  517184.6903386  1360356.364235  517161.8353278
 1360338.4911598  517151.3842795 1360316.3030589  517146.1221403
 1360297.7413148  517147.8186608 1360271.4980204   517156.295363
 1360226.0879831  517176.4836877 1360207.2488738  517182.1743482
 1360194.7369508  517183.9404825 1360181.1869066  517183.0368284
 1360162.6175236  517177.5016337 1360148.1115005  517169.5588784
 1360138.1636915  517160.8983872 1360124.0816623  517143.2241807
 1360099.7704278  517102.7152401 1360069.4224256  517060.4922678
 1359972.0472358  516939.1073311 1359933.0096342  516894.6810596
 1359924.4019756  516880.9050049 1359899.6140638  516832.6761833
 1359875.4270848  516792.4595093  1359848.175287  516760.7183301
 1359812.0910058  516709.0848129 1359792.1472871  516684.0272057
 1359741.6800443  516628.9561374 1359718.1999933  516593.4012657
 1359668.3727149  516505.9996511 1359647.4557464  516476.3043485
 1359609.2896057  516430.5872209 1359570.8030772  516389.3324955
 1359535.2598731  516342.2849062  1359482.535672  516253.7243554
 1359464.6045355  516227.8140202 1359433.3051661  516188.3068958
 1359416.6887166  516158.9608286 1359401.5676782  516123.0666302
  1359393.089408  516108.3758005 1359369.4850614  516075.4627013
 1359310.4665293  516004.5590353 1359289.9824329  515975.0021476
 1359276.8564925  515948.5203314 1359263.4947426  515900.5617557
 1359249.9208998   515877.570436 1359235.0542551  515859.9555596
 1359217.8371185  515843.9144724 1359181.6677602  515820.7256416
 1359167.6651739  515809.3455027 1359158.1043156  515796.5967169
 1359153.4921614   515782.535897 1359153.9588925   515768.008247
 1359160.3808572  515753.2314432  1359168.450071  515742.3081688
 1359197.4151224  515711.1859169 1359204.3182891  515700.3139663
 1359208.0110064  515689.5746708 1359209.8787613  515675.0762894
 1359211.1579862  515633.9939633 1359216.6151783  515585.2695155
 1359222.4984785  515562.5022108 1359251.7248799  515472.3742147
 1359260.8947626   515408.894651 1359268.2796057  515374.7179682
 1359270.3704238  515295.0269175 1359274.0674894  515269.9381173
 1359279.2495738  515251.8244602 1359295.2158117  515220.7711202
 1359303.6692151  515194.8046601 1359308.7244038  515164.8190303
 1359312.0591564  515131.3893773 1359326.4077753  515045.2285848
 1359351.6022328  514947.3543129 1359357.5278492  514906.4573642
 1359372.2229711  514846.4078327 1359397.8511294  514763.6004196
 1359403.5648755  514729.7525214 1359405.9127212  514690.1218935
 1359410.6701053  514662.7755451 1359433.1798329  514594.2096677
 1359438.5679198  514554.8071092  1359442.436079   514506.456046
  1359465.732634  514430.9294795 1359479.2925699  514373.8356509
 1359497.7882603  514313.5934315 1359508.6325814  514264.7779819
 1359520.6567445  514193.8542085 1359525.2096076  514175.0282845
 1359551.1194383  514096.1855095 1359561.2666431  514070.6176581
 1359587.8598299  514028.7352405 1359605.6258591  513992.8125742
 1359636.7408238  513943.3717704 1359666.9674752  513881.1807799
 1359712.4144206  513818.7153476 1359749.0014143  513754.5141279
 1359785.4508246   513675.858714 1359811.8580889  513612.1784313
 1359833.4655592   513553.074535 1359864.9484569  513504.9413485
 1359875.0755663  513485.7950726 1359879.4146678  513471.1519062
 1359884.3035944  513444.9281744 1359890.0464154  513396.2218665
 1359889.2845224  513358.8530201 1359884.7646963  513304.8686801
 1359881.1274051  513287.9155496 1359875.6088964  513277.1505987
 1359866.9301573  513266.4019237 1359853.4119639  513253.4076757
 1359838.6586759  513242.8135052 1359804.2899422  513226.7154769
 1359778.4786148  513221.1356795 1359764.9454969  513220.1845318
 1359751.0060561  513222.0003141 1359739.4540549  513228.1902064
 1359727.6968925  513241.2426981 1359704.1480018  513274.6772582
 1359687.3936652  513289.4838763 1359674.8268573  513292.9328028
 1359655.7948666  513289.2538608 1359595.5365886  513264.1063378
 1359536.1566764  513233.1694493 1359492.6529336  513199.4326232
 1359463.5400647  513181.2052404 1359434.6416976  513150.3821339
  1359417.105108  513135.5857066 1359317.2854904  513075.5444047
 1359300.4065698  513059.6156349 1359275.4411551   513027.245317
 1359266.2998468  513008.7352312 1359256.8958982  512978.7389609
 1359246.7489217  512918.6515026 1359244.9887237  512894.9656354
 1359245.9654157  512860.1099326 1359253.2484608  512813.3694517
 1359253.8087009  512794.7798478 1359248.4404426  512769.3242347
 1359239.4993518  512755.3178331 1359229.2171992  512746.5939614
 1359215.3826098  512739.7556425 1359192.8094354  512732.7048753
 1359175.1650009  512730.1187557 1359140.0843336  512729.6145744
 1359110.2491119  512731.2288178 1359019.7970041  512749.1980845
 1358978.5841942  512754.7360046 1358960.0990906  512753.7681702
 1358944.8597509  512750.2679225 1358926.4362119  512743.6748116
 1358912.2856779  512735.7948178 1358894.7747455  512720.3867573
 1358875.5817349  512699.6338236 1358842.5952015  512656.0665046
  1358828.064869  512633.4465671 1358821.5800623  512618.6458767
 1358817.2547441  512603.6517272 1358808.6070916  512540.2087016
 1358791.1650465  512457.8779568 1358785.5242212  512447.0941463
 1358773.6972964   512432.794666 1358756.5240209  512416.7088709
 1358745.5513001  512409.3061228  1358727.445237  512401.6375507
  1358708.694807  512396.9296539 1358695.7982225  512397.2086277
 1358687.5764569  512400.2320659 1358677.0041033  512408.2542132
 1358665.2061448  512422.0430692 1358637.1639256  512471.0057443
 1358624.2545248   512489.368823 1358608.1055186  512506.3619986
 1358569.5333384   512539.614202 1358547.3559361  512554.9695506
 1358524.9093997  512565.0925074 1358504.8138109  512569.7080468
 1358479.9785931  512570.3813549 1358461.6695898  512567.6284704
 1358447.0740165  512561.0844583 1358425.3392451   512544.849758
 1358408.6838344  512528.2457071 1358392.3398262  512506.4620024
 1358344.7768136  512435.0226334  1358334.254667  512415.8830136
  1358326.956565  512393.6128385 1358325.0789428  512379.9700032
 1358324.8616543  512360.1111473  1358328.868863  512333.8466206
  1358353.896475  512258.8283849 1358374.3760908  512209.8054831
 1358384.2248899  512168.8174386  1358395.173435  512135.1012701
 1358423.9889401  512074.4638939 1358433.7216281  512048.7503527
  1358438.821647  512029.8334484 1358443.2715669    512003.67515
 1358449.3185441  511951.0334964  1358449.944728   511906.181595
 1358444.6100291  511880.1926535 1358435.4343249  511862.4767641
  1358403.604443   511827.772331 1358395.6712274  511816.8262755
 1358389.1866276  511801.1384868 1358388.0850396  511780.8160253
 1358398.5813541  511753.9826556 1358409.6328314  511735.0235792
 1358425.0312174  511712.6923294 1358467.4240364  511658.6589917
 1358489.1207964  511624.5810576 1358504.0648222  511594.5326055
 1358511.3320446  511576.2590984 1358528.8638906  511523.7680593
 1358534.2257728  511499.8313315 1358535.4829339  511459.9380018
 1358533.7310646  511430.0686913  1358522.935406  511392.2660427
 1358502.8958582  511349.4630682 1358498.5555805  511314.3068182
 1358498.1215527   511287.397096 1358492.0451638  511243.5602905
 1358492.4791916  511133.7512627 1358500.2916915  511095.1227905
 1358510.2743305  511064.5238321 1358524.1632194  511032.4057766
 1358533.7118305  511015.4786932  1358538.486136  511001.1557766
 1358548.9028027  510985.0967488 1358559.7534971  510972.5099432
  1358593.173636  510943.8641099 1358602.2882194  510932.1453599
  1358616.611136  510919.9925821 1358646.5590527  510881.7981377
 1358671.7326638  510841.0863321  1358679.111136   510823.725221
 1358711.2291916  510761.6592488 1358717.3055805   510741.693971
 1358724.6840527  510724.3328599 1358743.3906499  510663.6123738
 1358790.2656499  510575.0707071 1358801.1163443  510560.3137627
 1358825.4218999  510536.0082071 1358870.5607888  510506.4943182
 1358884.4496777  510499.9839016 1358898.7725943  510490.8693182
  1358918.954886  510467.8224432 1358927.2014138  510448.2911932
 1358927.6354415  510403.5863321 1358933.2778027  510377.1106377
  1358946.298636  510354.1071655 1358965.3958582  510336.3120266
 1358997.9479416  510325.4613321 1359018.3472471  510324.5932766
 1359093.0000249   510331.537721 1359142.0451638  510344.1245266
 1359287.8784971  510395.7738321 1359315.6562749  510403.1523043
 1359343.0000249   510413.568971 1359389.4409971  510434.4023043
 1359408.1041916  510445.2529988 1359454.5451638  510465.6523044
 1359500.5521082  510481.7113321 1359517.9132194  510485.6175821
 1359540.4826638  510488.2217488 1359564.3541916  510488.2217488
 1359595.6041916  510492.1279988 1359613.3993305  510497.3363321
 1359648.1215527  510528.5863321 1359654.4149555  510536.3988321
  1359659.189261  510548.5516099 1359660.4913443  510577.4144571
 1359646.1684277  510637.3102905 1359636.1857888  510657.2755682
 1359615.3524554  510691.5637627  1359608.408011  510700.2443182
 1359591.4809277  510745.3832071 1359582.8003721  510787.9179293
 1359581.4982888  510808.9682766 1359584.1024554  510821.9891099
 1359590.6128721   510839.350221 1359610.5781499  510867.9960543
 1359632.2795388  510885.7911932 1359646.6024555  510892.3016099
 1359690.8732888   510901.850221 1359728.6337055  510914.8710544
 1359741.6545388  510915.7391099 1359762.9218999   510913.568971
 1359792.4357888  510907.0585543 1359805.4566221  510899.6800821
 1359821.0816221  510887.9613321 1359836.2725943  510881.8849432
 1359866.6545388  510865.8259154 1359892.6962055  510858.0134155
 1359934.7968999  510853.2391099 1359975.1614832  510844.5585543
 1360030.7170388   510839.350221 1360061.9670388  510832.8398044
 1360098.8593999  510828.4995266 1360128.3732888  510828.0654988
 1360157.6701638  510812.8745266 1360168.5208582  510806.3641099
 1360175.8993305  510799.4196655 1360204.5451638  510783.3606377
 1360221.9062749  510768.1696654 1360252.2882194  510748.2043877
 1360261.8368305  510739.0898044 1360267.4791916   510729.975221
 1360276.5937749  510711.3120266 1360280.5000249  510699.5932766
 1360287.0104415  510689.1766099 1360315.6562749  510652.8050821
 1360326.0729416  510628.4995266 1360335.6215527  510611.1384154
 1360337.7916915  510602.4578599 1360337.7916915  510592.9092488
 1360335.6215527  510583.7946654 1360319.9965527  510542.5620266
 1360315.6562749  510506.1036932 1360316.5243305  510488.3085544
 1360319.5625249  510480.0620266 1360331.2812749  510459.2286932
 1360354.2847471  510430.5828599  1360372.079886  510414.9578599
  1360407.236136  510404.5411932 1360452.6354416   510387.006471
 1360478.2430805   510367.475221 1360496.9062749  510347.0759155
 1360523.8159971   510312.787721 1360527.7222471  510303.2391099
 1360551.5937749  510264.6106377 1360559.8403027  510240.3050821
 1360565.4826638  510208.6210543 1360564.6146082  510187.3536932